REMARK SMILES CCCCCCCCCCCCCC(=O)O
REMARK SMILES IDX 8 1 7 2 6 3 5 4 4 5 3 6 2 7 1 8 9 9 10 10 11 11 12 12 13 13
REMARK SMILES IDX 14 14 15 15 16 16
REMARK H PARENT 16 17
REMARK Flexibility Score: inf
ROOT
ATOM      1  C   UNL     1       0.695   1.114  23.504  1.00  0.00     0.000 C 
ENDROOT
BRANCH   1   2
ATOM      2  C   UNL     1      -0.713   1.187  22.915  1.00  0.00     0.000 C 
BRANCH   2   3
ATOM      3  C   UNL     1      -0.957   2.616  22.447  1.00  0.00    -0.000 C 
BRANCH   3   4
ATOM      4  C   UNL     1      -2.143   3.226  23.192  1.00  0.00    -0.000 C 
BRANCH   4   5
ATOM      5  C   UNL     1      -3.317   3.393  22.222  1.00  0.00    -0.000 C 
BRANCH   5   6
ATOM      6  C   UNL     1      -3.313   4.793  21.595  1.00  0.00    -0.000 C 
BRANCH   6   7
ATOM      7  C   UNL     1      -2.945   4.705  20.108  1.00  0.00    -0.003 C 
ATOM      8  C   UNL     1      -4.207   4.492  19.268  1.00  0.00     0.004 C 
ENDBRANCH   6   7
ENDBRANCH   5   6
ENDBRANCH   4   5
ENDBRANCH   3   4
ENDBRANCH   2   3
ENDBRANCH   1   2
BRANCH   1   9
ATOM      9  C   UNL     1       1.358  -0.187  23.063  1.00  0.00     0.000 C 
BRANCH   9  10
ATOM     10  C   UNL     1       2.772  -0.260  23.637  1.00  0.00     0.000 C 
BRANCH  10  11
ATOM     11  C   UNL     1       3.749   0.463  22.709  1.00  0.00     0.001 C 
BRANCH  11  12
ATOM     12  C   UNL     1       4.979   0.880  23.508  1.00  0.00     0.012 C 
BRANCH  12  13
ATOM     13  C   UNL     1       5.957   1.576  22.563  1.00  0.00     0.122 C 
BRANCH  13  14
ATOM     14  C   UNL     1       6.754   2.555  23.373  1.00  0.00     0.303 C 
ATOM     15  O   UNL     1       6.289   3.791  23.568  1.00  0.00    -0.252 OA
BRANCH  14  16
ATOM     16  O   UNL     1       7.808   2.224  23.848  1.00  0.00    -0.481 OA
ATOM     17  H   UNL     1       8.129   1.438  23.400  1.00  0.00     0.296 HD
ENDBRANCH  14  16
ENDBRANCH  13  14
ENDBRANCH  12  13
ENDBRANCH  11  12
ENDBRANCH  10  11
ENDBRANCH   9  10
ENDBRANCH   1   9
TORSDOF 13
