
 OpenBabel07302301283D

 49 51  0  0  0  0  0  0  0  0999 V2000
    7.8420    2.8100   23.9520 C   0  0  0  0  0  0  0  0  0  0  0  0
    6.3560    2.7620   23.6510 C   0  0  0  0  0  0  0  0  0  0  0  0
    5.8700    1.3590   23.3310 C   0  0  0  0  0  0  0  0  0  0  0  0
    6.6270    0.4020   23.1920 O   0  0  0  0  0  0  0  0  0  0  0  0
    4.4950    1.3220   23.2190 N   0  0  0  0  0  0  0  0  0  0  0  0
    3.7630    0.0990   22.9150 C   0  0  1  0  0  0  0  0  0  0  0  0
    4.2090   -1.0880   23.7650 C   0  0  0  0  0  0  0  0  0  0  0  0
    4.7420   -0.8450   25.0120 C   0  0  0  0  0  0  0  0  0  0  0  0
    5.1510   -1.9290   25.7890 C   0  0  0  0  0  0  0  0  0  0  0  0
    5.0160   -3.2280   25.3000 C   0  0  0  0  0  0  0  0  0  0  0  0
    5.4280   -4.3230   26.0860 N   0  0  0  0  0  0  0  0  0  0  0  0
    6.8300   -4.5150   26.4000 C   0  0  0  0  0  0  0  0  0  0  0  0
    4.4540   -5.2640   26.6020 C   0  0  0  0  0  0  0  0  0  0  0  0
    4.4720   -3.4430   24.0330 C   0  0  0  0  0  0  0  0  0  0  0  0
    4.0640   -2.3590   23.2560 C   0  0  0  0  0  0  0  0  0  0  0  0
    2.2940    0.3630   22.9840 C   0  0  0  0  0  0  0  0  0  0  0  0
    1.4280   -0.6930   23.2390 C   0  0  0  0  0  0  0  0  0  0  0  0
    0.0580   -0.4550   23.3060 C   0  0  0  0  0  0  0  0  0  0  0  0
   -0.4500    0.8420   23.1180 C   0  0  0  0  0  0  0  0  0  0  0  0
   -1.8240    1.1090   23.1800 C   0  0  0  0  0  0  0  0  0  0  0  0
   -2.2940    2.4000   22.9900 C   0  0  0  0  0  0  0  0  0  0  0  0
   -1.3620    3.3880   22.7420 C   0  0  0  0  0  0  0  0  0  0  0  0
   -0.0280    3.1730   22.6740 N   0  0  0  0  0  0  0  0  0  0  0  0
    0.4250    1.9190   22.8590 C   0  0  0  0  0  0  0  0  0  0  0  0
    1.7900    1.6520   22.7980 C   0  0  0  0  0  0  0  0  0  0  0  0
    2.6620    2.6780   22.5480 O   0  0  0  0  0  0  0  0  0  0  0  0
    7.9955    2.8150   25.0412 H   0  0  0  0  0  0  0  0  0  0  0  0
    8.3330    1.9272   23.5165 H   0  0  0  0  0  0  0  0  0  0  0  0
    8.2750    3.7226   23.5165 H   0  0  0  0  0  0  0  0  0  0  0  0
    5.8066    3.1336   24.5285 H   0  0  0  0  0  0  0  0  0  0  0  0
    6.1752    3.3876   22.7644 H   0  0  0  0  0  0  0  0  0  0  0  0
    3.9690    2.1730   23.3960 H   0  0  0  0  0  0  0  0  0  0  0  0
    4.0026   -0.2035   21.8849 H   0  0  0  0  0  0  0  0  0  0  0  0
    4.8431    0.1839   25.3877 H   0  0  0  0  0  0  0  0  0  0  0  0
    5.5800   -1.7591   26.7875 H   0  0  0  0  0  0  0  0  0  0  0  0
    6.9621   -4.5331   27.4919 H   0  0  0  0  0  0  0  0  0  0  0  0
    7.1741   -5.4686   25.9732 H   0  0  0  0  0  0  0  0  0  0  0  0
    7.4178   -3.6890   25.9732 H   0  0  0  0  0  0  0  0  0  0  0  0
    4.4731   -5.2455   27.7017 H   0  0  0  0  0  0  0  0  0  0  0  0
    3.4508   -4.9844   26.2480 H   0  0  0  0  0  0  0  0  0  0  0  0
    4.6988   -6.2763   26.2480 H   0  0  0  0  0  0  0  0  0  0  0  0
    4.3650   -4.4675   23.6471 H   0  0  0  0  0  0  0  0  0  0  0  0
    3.6346   -2.5165   22.2556 H   0  0  0  0  0  0  0  0  0  0  0  0
    1.8218   -1.7094   23.3868 H   0  0  0  0  0  0  0  0  0  0  0  0
   -0.6318   -1.2878   23.5075 H   0  0  0  0  0  0  0  0  0  0  0  0
   -2.5326    0.2918   23.3801 H   0  0  0  0  0  0  0  0  0  0  0  0
   -3.3691    2.6282   23.0352 H   0  0  0  0  0  0  0  0  0  0  0  0
   -1.7270    4.4145   22.5902 H   0  0  0  0  0  0  0  0  0  0  0  0
    2.1640    3.5130   22.5640 H   0  0  0  0  0  0  0  0  0  0  0  0
  1  2  1  0  0  0  0
  1 27  1  0  0  0  0
  1 28  1  0  0  0  0
  1 29  1  0  0  0  0
  2  3  1  0  0  0  0
  2 30  1  0  0  0  0
  2 31  1  0  0  0  0
  3  4  2  0  0  0  0
  3  5  1  0  0  0  0
  5  6  1  0  0  0  0
  5 32  1  0  0  0  0
  6  7  1  0  0  0  0
  6 16  1  0  0  0  0
  6 33  1  6  0  0  0
  7  8  2  0  0  0  0
  8  9  1  0  0  0  0
  8 34  1  0  0  0  0
  9 10  2  0  0  0  0
  9 35  1  0  0  0  0
 10 11  1  0  0  0  0
 10 14  1  0  0  0  0
 11 12  1  0  0  0  0
 11 13  1  0  0  0  0
 12 36  1  0  0  0  0
 12 37  1  0  0  0  0
 12 38  1  0  0  0  0
 13 39  1  0  0  0  0
 13 40  1  0  0  0  0
 13 41  1  0  0  0  0
 14 15  2  0  0  0  0
 14 42  1  0  0  0  0
 15  7  1  0  0  0  0
 15 43  1  0  0  0  0
 16 17  2  0  0  0  0
 17 18  1  0  0  0  0
 17 44  1  0  0  0  0
 18 19  2  0  0  0  0
 18 45  1  0  0  0  0
 19 20  1  0  0  0  0
 20 21  2  0  0  0  0
 20 46  1  0  0  0  0
 21 22  1  0  0  0  0
 21 47  1  0  0  0  0
 22 23  2  0  0  0  0
 22 48  1  0  0  0  0
 23 24  1  0  0  0  0
 24 25  2  0  0  0  0
 24 19  1  0  0  0  0
 25 26  1  0  0  0  0
 25 16  1  0  0  0  0
 26 49  1  0  0  0  0
M  END
>  <meeko>
{"free_energy": -7.609, "intermolecular_energy": -9.399, "internal_energy": -1.753}

$$$$
