
 OpenBabel07302301283D

 49 51  0  0  0  0  0  0  0  0999 V2000
    5.8160   -2.9250   26.4290 C   0  0  0  0  0  0  0  0  0  0  0  0
    4.4420   -3.2010   25.8470 C   0  0  0  0  0  0  0  0  0  0  0  0
    4.2890   -2.6700   24.4330 C   0  0  0  0  0  0  0  0  0  0  0  0
    4.8170   -3.1960   23.4570 O   0  0  0  0  0  0  0  0  0  0  0  0
    3.4970   -1.5390   24.4090 N   0  0  0  0  0  0  0  0  0  0  0  0
    3.1870   -0.8210   23.1790 C   0  0  1  0  0  0  0  0  0  0  0  0
    1.8530   -0.0800   23.2460 C   0  0  0  0  0  0  0  0  0  0  0  0
    0.7070   -0.7480   22.8750 C   0  0  0  0  0  0  0  0  0  0  0  0
   -0.5120   -0.0710   22.9350 C   0  0  0  0  0  0  0  0  0  0  0  0
   -0.5530    1.2560   23.3650 C   0  0  0  0  0  0  0  0  0  0  0  0
   -1.7850    1.9390   23.4270 N   0  0  0  0  0  0  0  0  0  0  0  0
   -1.9330    3.1090   24.2690 C   0  0  0  0  0  0  0  0  0  0  0  0
   -2.9130    1.4880   22.6370 C   0  0  0  0  0  0  0  0  0  0  0  0
    0.6260    1.9050   23.7340 C   0  0  0  0  0  0  0  0  0  0  0  0
    1.8440    1.2290   23.6740 C   0  0  0  0  0  0  0  0  0  0  0  0
    4.3380    0.0550   22.8060 C   0  0  0  0  0  0  0  0  0  0  0  0
    4.5490    0.3610   21.4670 C   0  0  0  0  0  0  0  0  0  0  0  0
    5.6180    1.1770   21.1100 C   0  0  0  0  0  0  0  0  0  0  0  0
    6.4810    1.6900   22.0940 C   0  0  0  0  0  0  0  0  0  0  0  0
    7.5660    2.5130   21.7630 C   0  0  0  0  0  0  0  0  0  0  0  0
    8.3990    3.0040   22.7570 C   0  0  0  0  0  0  0  0  0  0  0  0
    8.1150    2.6490   24.0600 C   0  0  0  0  0  0  0  0  0  0  0  0
    7.0800    1.8580   24.4230 N   0  0  0  0  0  0  0  0  0  0  0  0
    6.2720    1.3830   23.4560 C   0  0  0  0  0  0  0  0  0  0  0  0
    5.1940    0.5650   23.7840 C   0  0  0  0  0  0  0  0  0  0  0  0
    4.9680    0.2510   25.0970 O   0  0  0  0  0  0  0  0  0  0  0  0
    5.7580   -2.9366   27.5274 H   0  0  0  0  0  0  0  0  0  0  0  0
    6.5199   -3.6997   26.0907 H   0  0  0  0  0  0  0  0  0  0  0  0
    6.1661   -1.9386   26.0907 H   0  0  0  0  0  0  0  0  0  0  0  0
    4.2767   -4.2884   25.8347 H   0  0  0  0  0  0  0  0  0  0  0  0
    3.7033   -2.6852   26.4781 H   0  0  0  0  0  0  0  0  0  0  0  0
    3.0800   -1.2180   25.2780 H   0  0  0  0  0  0  0  0  0  0  0  0
    3.0478   -1.5543   22.3709 H   0  0  0  0  0  0  0  0  0  0  0  0
    0.7517   -1.7942   22.5381 H   0  0  0  0  0  0  0  0  0  0  0  0
   -1.4406   -0.5835   22.6433 H   0  0  0  0  0  0  0  0  0  0  0  0
   -1.8948    2.8072   25.3261 H   0  0  0  0  0  0  0  0  0  0  0  0
   -1.1172    3.8167   24.0600 H   0  0  0  0  0  0  0  0  0  0  0  0
   -2.8993    3.5913   24.0600 H   0  0  0  0  0  0  0  0  0  0  0  0
   -3.7234    1.1640   23.3065 H   0  0  0  0  0  0  0  0  0  0  0  0
   -3.2694    2.3128   22.0024 H   0  0  0  0  0  0  0  0  0  0  0  0
   -2.6025    0.6449   22.0024 H   0  0  0  0  0  0  0  0  0  0  0  0
    0.5944    2.9511   24.0726 H   0  0  0  0  0  0  0  0  0  0  0  0
    2.7791    1.7312   23.9628 H   0  0  0  0  0  0  0  0  0  0  0  0
    3.8756   -0.0391   20.6947 H   0  0  0  0  0  0  0  0  0  0  0  0
    5.7889    1.4222   20.0514 H   0  0  0  0  0  0  0  0  0  0  0  0
    7.7575    2.7704   20.7108 H   0  0  0  0  0  0  0  0  0  0  0  0
    9.2543    3.6523   22.5159 H   0  0  0  0  0  0  0  0  0  0  0  0
    8.7722    3.0339   24.8537 H   0  0  0  0  0  0  0  0  0  0  0  0
    5.6100    0.7360   25.6420 H   0  0  0  0  0  0  0  0  0  0  0  0
  1  2  1  0  0  0  0
  1 27  1  0  0  0  0
  1 28  1  0  0  0  0
  1 29  1  0  0  0  0
  2  3  1  0  0  0  0
  2 30  1  0  0  0  0
  2 31  1  0  0  0  0
  3  4  2  0  0  0  0
  3  5  1  0  0  0  0
  5  6  1  0  0  0  0
  5 32  1  0  0  0  0
  6  7  1  0  0  0  0
  6 16  1  0  0  0  0
  6 33  1  6  0  0  0
  7  8  2  0  0  0  0
  8  9  1  0  0  0  0
  8 34  1  0  0  0  0
  9 10  2  0  0  0  0
  9 35  1  0  0  0  0
 10 11  1  0  0  0  0
 10 14  1  0  0  0  0
 11 12  1  0  0  0  0
 11 13  1  0  0  0  0
 12 36  1  0  0  0  0
 12 37  1  0  0  0  0
 12 38  1  0  0  0  0
 13 39  1  0  0  0  0
 13 40  1  0  0  0  0
 13 41  1  0  0  0  0
 14 15  2  0  0  0  0
 14 42  1  0  0  0  0
 15  7  1  0  0  0  0
 15 43  1  0  0  0  0
 16 17  2  0  0  0  0
 17 18  1  0  0  0  0
 17 44  1  0  0  0  0
 18 19  2  0  0  0  0
 18 45  1  0  0  0  0
 19 20  1  0  0  0  0
 20 21  2  0  0  0  0
 20 46  1  0  0  0  0
 21 22  1  0  0  0  0
 21 47  1  0  0  0  0
 22 23  2  0  0  0  0
 22 48  1  0  0  0  0
 23 24  1  0  0  0  0
 24 25  2  0  0  0  0
 24 19  1  0  0  0  0
 25 26  1  0  0  0  0
 25 16  1  0  0  0  0
 26 49  1  0  0  0  0
M  END
>  <meeko>
{"free_energy": -7.646, "intermolecular_energy": -9.436, "internal_energy": -1.862}

$$$$
