
 OpenBabel07302301283D

 49 51  0  0  0  0  0  0  0  0999 V2000
    0.1180   -2.7480   21.6750 C   0  0  0  0  0  0  0  0  0  0  0  0
   -1.1830   -2.2350   22.2640 C   0  0  0  0  0  0  0  0  0  0  0  0
   -1.1250   -0.7560   22.6050 C   0  0  0  0  0  0  0  0  0  0  0  0
   -2.1130   -0.0260   22.5970 O   0  0  0  0  0  0  0  0  0  0  0  0
    0.1620   -0.3660   22.9130 N   0  0  0  0  0  0  0  0  0  0  0  0
    0.5040    1.0040   23.2760 C   0  0  1  0  0  0  0  0  0  0  0  0
    1.9990    1.2920   23.1590 C   0  0  0  0  0  0  0  0  0  0  0  0
    2.8840    0.4870   23.8410 C   0  0  0  0  0  0  0  0  0  0  0  0
    4.2490    0.7510   23.7350 C   0  0  0  0  0  0  0  0  0  0  0  0
    4.6960    1.8120   22.9480 C   0  0  0  0  0  0  0  0  0  0  0  0
    6.0760    2.0780   22.8400 N   0  0  0  0  0  0  0  0  0  0  0  0
    6.8470    1.5200   21.7460 C   0  0  0  0  0  0  0  0  0  0  0  0
    6.7390    2.9230   23.8130 C   0  0  0  0  0  0  0  0  0  0  0  0
    3.7750    2.6100   22.2680 C   0  0  0  0  0  0  0  0  0  0  0  0
    2.4100    2.3470   22.3750 C   0  0  0  0  0  0  0  0  0  0  0  0
   -0.3490    1.9560   22.5040 C   0  0  0  0  0  0  0  0  0  0  0  0
   -0.3730    1.8710   21.1170 C   0  0  0  0  0  0  0  0  0  0  0  0
   -1.1650    2.7540   20.3890 C   0  0  0  0  0  0  0  0  0  0  0  0
   -1.9380    3.7250   21.0490 C   0  0  0  0  0  0  0  0  0  0  0  0
   -2.7440    4.6270   20.3410 C   0  0  0  0  0  0  0  0  0  0  0  0
   -3.4960    5.5750   21.0210 C   0  0  0  0  0  0  0  0  0  0  0  0
   -3.4120    5.5870   22.3980 C   0  0  0  0  0  0  0  0  0  0  0  0
   -2.6460    4.7350   23.1190 N   0  0  0  0  0  0  0  0  0  0  0  0
   -1.9190    3.8170   22.4570 C   0  0  0  0  0  0  0  0  0  0  0  0
   -1.1170    2.9210   23.1590 C   0  0  0  0  0  0  0  0  0  0  0  0
   -1.0790    2.9860   24.5260 O   0  0  0  0  0  0  0  0  0  0  0  0
    0.8068   -3.0196   22.4885 H   0  0  0  0  0  0  0  0  0  0  0  0
   -0.0843   -3.6337   21.0548 H   0  0  0  0  0  0  0  0  0  0  0  0
    0.5746   -1.9626   21.0548 H   0  0  0  0  0  0  0  0  0  0  0  0
   -1.9890   -2.3970   21.5331 H   0  0  0  0  0  0  0  0  0  0  0  0
   -1.3667   -2.7860   23.1982 H   0  0  0  0  0  0  0  0  0  0  0  0
    0.8950   -1.0700   22.9260 H   0  0  0  0  0  0  0  0  0  0  0  0
    0.2843    1.1479   24.3442 H   0  0  0  0  0  0  0  0  0  0  0  0
    2.5210   -0.3484   24.4577 H   0  0  0  0  0  0  0  0  0  0  0  0
    4.9738    0.1219   24.2725 H   0  0  0  0  0  0  0  0  0  0  0  0
    7.6758    0.9202   22.1501 H   0  0  0  0  0  0  0  0  0  0  0  0
    6.1985    0.8807   21.1290 H   0  0  0  0  0  0  0  0  0  0  0  0
    7.2516    2.3359   21.1290 H   0  0  0  0  0  0  0  0  0  0  0  0
    6.4769    2.5890   24.8278 H   0  0  0  0  0  0  0  0  0  0  0  0
    7.8283    2.8563   23.6749 H   0  0  0  0  0  0  0  0  0  0  0  0
    6.4150    3.9651   23.6749 H   0  0  0  0  0  0  0  0  0  0  0  0
    4.1263    3.4473   21.6470 H   0  0  0  0  0  0  0  0  0  0  0  0
    1.6756    2.9701   21.8435 H   0  0  0  0  0  0  0  0  0  0  0  0
    0.2298    1.1111   20.5982 H   0  0  0  0  0  0  0  0  0  0  0  0
   -1.1862    2.6917   19.2910 H   0  0  0  0  0  0  0  0  0  0  0  0
   -2.7807    4.5835   19.2425 H   0  0  0  0  0  0  0  0  0  0  0  0
   -4.1350    6.2900   20.4821 H   0  0  0  0  0  0  0  0  0  0  0  0
   -4.0045    6.3357   22.9442 H   0  0  0  0  0  0  0  0  0  0  0  0
   -1.6600    3.7100   24.8140 H   0  0  0  0  0  0  0  0  0  0  0  0
  1  2  1  0  0  0  0
  1 27  1  0  0  0  0
  1 28  1  0  0  0  0
  1 29  1  0  0  0  0
  2  3  1  0  0  0  0
  2 30  1  0  0  0  0
  2 31  1  0  0  0  0
  3  4  2  0  0  0  0
  3  5  1  0  0  0  0
  5  6  1  0  0  0  0
  5 32  1  0  0  0  0
  6  7  1  0  0  0  0
  6 16  1  0  0  0  0
  6 33  1  1  0  0  0
  7  8  2  0  0  0  0
  8  9  1  0  0  0  0
  8 34  1  0  0  0  0
  9 10  2  0  0  0  0
  9 35  1  0  0  0  0
 10 11  1  0  0  0  0
 10 14  1  0  0  0  0
 11 12  1  0  0  0  0
 11 13  1  0  0  0  0
 12 36  1  0  0  0  0
 12 37  1  0  0  0  0
 12 38  1  0  0  0  0
 13 39  1  0  0  0  0
 13 40  1  0  0  0  0
 13 41  1  0  0  0  0
 14 15  2  0  0  0  0
 14 42  1  0  0  0  0
 15  7  1  0  0  0  0
 15 43  1  0  0  0  0
 16 17  2  0  0  0  0
 17 18  1  0  0  0  0
 17 44  1  0  0  0  0
 18 19  2  0  0  0  0
 18 45  1  0  0  0  0
 19 20  1  0  0  0  0
 20 21  2  0  0  0  0
 20 46  1  0  0  0  0
 21 22  1  0  0  0  0
 21 47  1  0  0  0  0
 22 23  2  0  0  0  0
 22 48  1  0  0  0  0
 23 24  1  0  0  0  0
 24 25  2  0  0  0  0
 24 19  1  0  0  0  0
 25 26  1  0  0  0  0
 25 16  1  0  0  0  0
 26 49  1  0  0  0  0
M  END
>  <meeko>
{"free_energy": -6.88, "intermolecular_energy": -8.67, "internal_energy": -1.471}

$$$$
