
 OpenBabel07302301283D

 49 51  0  0  0  0  0  0  0  0999 V2000
    4.8130   -4.1340   23.8770 C   0  0  0  0  0  0  0  0  0  0  0  0
    4.3060   -2.9750   24.7150 C   0  0  0  0  0  0  0  0  0  0  0  0
    4.5440   -1.6290   24.0550 C   0  0  0  0  0  0  0  0  0  0  0  0
    5.6170   -1.0330   24.1140 O   0  0  0  0  0  0  0  0  0  0  0  0
    3.4120   -1.1870   23.4020 N   0  0  0  0  0  0  0  0  0  0  0  0
    3.3600    0.0810   22.6850 C   0  0  1  0  0  0  0  0  0  0  0  0
    2.0960    0.8820   22.9860 C   0  0  0  0  0  0  0  0  0  0  0  0
    2.0970    2.2370   22.7410 C   0  0  0  0  0  0  0  0  0  0  0  0
    0.9430    2.9700   23.0170 C   0  0  0  0  0  0  0  0  0  0  0  0
   -0.1850    2.3280   23.5300 C   0  0  0  0  0  0  0  0  0  0  0  0
   -1.3520    3.0680   23.8080 N   0  0  0  0  0  0  0  0  0  0  0  0
   -1.2720    4.3200   24.5330 C   0  0  0  0  0  0  0  0  0  0  0  0
   -2.6460    2.5940   23.3590 C   0  0  0  0  0  0  0  0  0  0  0  0
   -0.1570    0.9530   23.7670 C   0  0  0  0  0  0  0  0  0  0  0  0
    0.9980    0.2210   23.4920 C   0  0  0  0  0  0  0  0  0  0  0  0
    4.6210    0.8450   22.9240 C   0  0  0  0  0  0  0  0  0  0  0  0
    4.8250    1.4430   24.1610 C   0  0  0  0  0  0  0  0  0  0  0  0
    5.9970    2.1570   24.3930 C   0  0  0  0  0  0  0  0  0  0  0  0
    6.9710    2.2730   23.3860 C   0  0  0  0  0  0  0  0  0  0  0  0
    8.1600    2.9860   23.5920 C   0  0  0  0  0  0  0  0  0  0  0  0
    9.1010    3.0820   22.5780 C   0  0  0  0  0  0  0  0  0  0  0  0
    8.8160    2.4560   21.3820 C   0  0  0  0  0  0  0  0  0  0  0  0
    7.6820    1.7590   21.1410 N   0  0  0  0  0  0  0  0  0  0  0  0
    6.7700    1.6670   22.1280 C   0  0  0  0  0  0  0  0  0  0  0  0
    5.5880    0.9600   21.9240 C   0  0  0  0  0  0  0  0  0  0  0  0
    5.3670    0.3610   20.7120 O   0  0  0  0  0  0  0  0  0  0  0  0
    5.1650   -4.9388   24.5391 H   0  0  0  0  0  0  0  0  0  0  0  0
    3.9979   -4.5117   23.2422 H   0  0  0  0  0  0  0  0  0  0  0  0
    5.6436   -3.7917   23.2422 H   0  0  0  0  0  0  0  0  0  0  0  0
    3.2252   -3.1025   24.8753 H   0  0  0  0  0  0  0  0  0  0  0  0
    4.8609   -2.9830   25.6647 H   0  0  0  0  0  0  0  0  0  0  0  0
    2.5920   -1.7870   23.3880 H   0  0  0  0  0  0  0  0  0  0  0  0
    3.2942   -0.1301   21.6075 H   0  0  0  0  0  0  0  0  0  0  0  0
    2.9914    2.7322   22.3351 H   0  0  0  0  0  0  0  0  0  0  0  0
    0.9219    4.0539   22.8304 H   0  0  0  0  0  0  0  0  0  0  0  0
   -1.2848    4.1190   25.6144 H   0  0  0  0  0  0  0  0  0  0  0  0
   -0.3389    4.8385   24.2675 H   0  0  0  0  0  0  0  0  0  0  0  0
   -2.1315    4.9530   24.2675 H   0  0  0  0  0  0  0  0  0  0  0  0
   -3.2750    2.3636   24.2315 H   0  0  0  0  0  0  0  0  0  0  0  0
   -3.1314    3.3727   22.7524 H   0  0  0  0  0  0  0  0  0  0  0  0
   -2.5136    1.6860   22.7524 H   0  0  0  0  0  0  0  0  0  0  0  0
   -1.0460    0.4464   24.1708 H   0  0  0  0  0  0  0  0  0  0  0  0
    1.0317   -0.8631   23.6755 H   0  0  0  0  0  0  0  0  0  0  0  0
    4.0656    1.3529   24.9517 H   0  0  0  0  0  0  0  0  0  0  0  0
    6.1622    2.6336   25.3706 H   0  0  0  0  0  0  0  0  0  0  0  0
    8.3473    3.4711   24.5613 H   0  0  0  0  0  0  0  0  0  0  0  0
   10.0399    3.6367   22.7219 H   0  0  0  0  0  0  0  0  0  0  0  0
    9.5580    2.5283   20.5731 H   0  0  0  0  0  0  0  0  0  0  0  0
    4.8210    0.9580   20.1720 H   0  0  0  0  0  0  0  0  0  0  0  0
  1  2  1  0  0  0  0
  1 27  1  0  0  0  0
  1 28  1  0  0  0  0
  1 29  1  0  0  0  0
  2  3  1  0  0  0  0
  2 30  1  0  0  0  0
  2 31  1  0  0  0  0
  3  4  2  0  0  0  0
  3  5  1  0  0  0  0
  5  6  1  0  0  0  0
  5 32  1  0  0  0  0
  6  7  1  0  0  0  0
  6 16  1  0  0  0  0
  6 33  1  6  0  0  0
  7  8  2  0  0  0  0
  8  9  1  0  0  0  0
  8 34  1  0  0  0  0
  9 10  2  0  0  0  0
  9 35  1  0  0  0  0
 10 11  1  0  0  0  0
 10 14  1  0  0  0  0
 11 12  1  0  0  0  0
 11 13  1  0  0  0  0
 12 36  1  0  0  0  0
 12 37  1  0  0  0  0
 12 38  1  0  0  0  0
 13 39  1  0  0  0  0
 13 40  1  0  0  0  0
 13 41  1  0  0  0  0
 14 15  2  0  0  0  0
 14 42  1  0  0  0  0
 15  7  1  0  0  0  0
 15 43  1  0  0  0  0
 16 17  2  0  0  0  0
 17 18  1  0  0  0  0
 17 44  1  0  0  0  0
 18 19  2  0  0  0  0
 18 45  1  0  0  0  0
 19 20  1  0  0  0  0
 20 21  2  0  0  0  0
 20 46  1  0  0  0  0
 21 22  1  0  0  0  0
 21 47  1  0  0  0  0
 22 23  2  0  0  0  0
 22 48  1  0  0  0  0
 23 24  1  0  0  0  0
 24 25  2  0  0  0  0
 24 19  1  0  0  0  0
 25 26  1  0  0  0  0
 25 16  1  0  0  0  0
 26 49  1  0  0  0  0
M  END
>  <meeko>
{"free_energy": -7.615, "intermolecular_energy": -9.405, "internal_energy": -0.14}

$$$$
