
 OpenBabel07302301283D

 49 51  0  0  0  0  0  0  0  0999 V2000
    0.4370   -2.2570   20.8880 C   0  0  0  0  0  0  0  0  0  0  0  0
   -0.6500   -2.2110   21.9460 C   0  0  0  0  0  0  0  0  0  0  0  0
   -0.4410   -1.0930   22.9500 C   0  0  0  0  0  0  0  0  0  0  0  0
   -1.1830   -0.9050   23.9110 O   0  0  0  0  0  0  0  0  0  0  0  0
    0.6710   -0.3390   22.6320 N   0  0  0  0  0  0  0  0  0  0  0  0
    1.1030    0.8030   23.4280 C   0  0  1  0  0  0  0  0  0  0  0  0
    2.5750    1.1490   23.2170 C   0  0  0  0  0  0  0  0  0  0  0  0
    2.9240    1.9230   22.1330 C   0  0  0  0  0  0  0  0  0  0  0  0
    4.2690    2.2390   21.9390 C   0  0  0  0  0  0  0  0  0  0  0  0
    5.2310    1.7740   22.8360 C   0  0  0  0  0  0  0  0  0  0  0  0
    6.5900    2.0950   22.6410 N   0  0  0  0  0  0  0  0  0  0  0  0
    7.2720    2.9860   23.5580 C   0  0  0  0  0  0  0  0  0  0  0  0
    7.3250    1.5260   21.5300 C   0  0  0  0  0  0  0  0  0  0  0  0
    4.8470    0.9920   23.9260 C   0  0  0  0  0  0  0  0  0  0  0  0
    3.5020    0.6760   24.1190 C   0  0  0  0  0  0  0  0  0  0  0  0
    0.1810    1.9540   23.1960 C   0  0  0  0  0  0  0  0  0  0  0  0
    0.0670    2.9380   24.1710 C   0  0  0  0  0  0  0  0  0  0  0  0
   -0.7900    4.0140   23.9640 C   0  0  0  0  0  0  0  0  0  0  0  0
   -1.5370    4.1110   22.7770 C   0  0  0  0  0  0  0  0  0  0  0  0
   -2.4080    5.1830   22.5430 C   0  0  0  0  0  0  0  0  0  0  0  0
   -3.1310    5.2500   21.3610 C   0  0  0  0  0  0  0  0  0  0  0  0
   -2.9570    4.2300   20.4480 C   0  0  0  0  0  0  0  0  0  0  0  0
   -2.1280    3.1770   20.6350 N   0  0  0  0  0  0  0  0  0  0  0  0
   -1.4260    3.1160   21.7830 C   0  0  0  0  0  0  0  0  0  0  0  0
   -0.5610    2.0500   22.0170 C   0  0  0  0  0  0  0  0  0  0  0  0
   -0.4340    1.0700   21.0690 O   0  0  0  0  0  0  0  0  0  0  0  0
    1.4220   -2.2987   21.3759 H   0  0  0  0  0  0  0  0  0  0  0  0
    0.3005   -3.1502   20.2606 H   0  0  0  0  0  0  0  0  0  0  0  0
    0.3764   -1.3555   20.2606 H   0  0  0  0  0  0  0  0  0  0  0  0
   -1.6195   -2.0609   21.4485 H   0  0  0  0  0  0  0  0  0  0  0  0
   -0.6191   -3.1628   22.4965 H   0  0  0  0  0  0  0  0  0  0  0  0
    1.2340   -0.6150   21.8320 H   0  0  0  0  0  0  0  0  0  0  0  0
    1.0395    0.5317   24.4921 H   0  0  0  0  0  0  0  0  0  0  0  0
    2.1567    2.2854   21.4331 H   0  0  0  0  0  0  0  0  0  0  0  0
    4.5709    2.8547   21.0789 H   0  0  0  0  0  0  0  0  0  0  0  0
    7.0457    2.6903   24.5931 H   0  0  0  0  0  0  0  0  0  0  0  0
    8.3572    2.9261   23.3885 H   0  0  0  0  0  0  0  0  0  0  0  0
    6.9308    4.0179   23.3885 H   0  0  0  0  0  0  0  0  0  0  0  0
    8.1400    0.8951   21.9143 H   0  0  0  0  0  0  0  0  0  0  0  0
    6.6468    0.9152   20.9160 H   0  0  0  0  0  0  0  0  0  0  0  0
    7.7464    2.3356   20.9160 H   0  0  0  0  0  0  0  0  0  0  0  0
    5.6051    0.6246   24.6333 H   0  0  0  0  0  0  0  0  0  0  0  0
    3.1879    0.0609   24.9751 H   0  0  0  0  0  0  0  0  0  0  0  0
    0.6508    2.8663   25.1005 H   0  0  0  0  0  0  0  0  0  0  0  0
   -0.8838    4.7939   24.7340 H   0  0  0  0  0  0  0  0  0  0  0  0
   -2.5190    5.9742   23.2991 H   0  0  0  0  0  0  0  0  0  0  0  0
   -3.8176    6.0853   21.1590 H   0  0  0  0  0  0  0  0  0  0  0  0
   -3.5282    4.2758   19.5090 H   0  0  0  0  0  0  0  0  0  0  0  0
   -0.7420    1.4260   20.2180 H   0  0  0  0  0  0  0  0  0  0  0  0
  1  2  1  0  0  0  0
  1 27  1  0  0  0  0
  1 28  1  0  0  0  0
  1 29  1  0  0  0  0
  2  3  1  0  0  0  0
  2 30  1  0  0  0  0
  2 31  1  0  0  0  0
  3  4  2  0  0  0  0
  3  5  1  0  0  0  0
  5  6  1  0  0  0  0
  5 32  1  0  0  0  0
  6  7  1  0  0  0  0
  6 16  1  0  0  0  0
  6 33  1  1  0  0  0
  7  8  2  0  0  0  0
  8  9  1  0  0  0  0
  8 34  1  0  0  0  0
  9 10  2  0  0  0  0
  9 35  1  0  0  0  0
 10 11  1  0  0  0  0
 10 14  1  0  0  0  0
 11 12  1  0  0  0  0
 11 13  1  0  0  0  0
 12 36  1  0  0  0  0
 12 37  1  0  0  0  0
 12 38  1  0  0  0  0
 13 39  1  0  0  0  0
 13 40  1  0  0  0  0
 13 41  1  0  0  0  0
 14 15  2  0  0  0  0
 14 42  1  0  0  0  0
 15  7  1  0  0  0  0
 15 43  1  0  0  0  0
 16 17  2  0  0  0  0
 17 18  1  0  0  0  0
 17 44  1  0  0  0  0
 18 19  2  0  0  0  0
 18 45  1  0  0  0  0
 19 20  1  0  0  0  0
 20 21  2  0  0  0  0
 20 46  1  0  0  0  0
 21 22  1  0  0  0  0
 21 47  1  0  0  0  0
 22 23  2  0  0  0  0
 22 48  1  0  0  0  0
 23 24  1  0  0  0  0
 24 25  2  0  0  0  0
 24 19  1  0  0  0  0
 25 26  1  0  0  0  0
 25 16  1  0  0  0  0
 26 49  1  0  0  0  0
M  END
>  <meeko>
{"free_energy": -7.283, "intermolecular_energy": -9.073, "internal_energy": -1.479}

$$$$
