
 OpenBabel07302301283D

 49 51  0  0  0  0  0  0  0  0999 V2000
   -0.4420   -2.6140   21.5180 C   0  0  0  0  0  0  0  0  0  0  0  0
    1.0660   -2.6390   21.3500 C   0  0  0  0  0  0  0  0  0  0  0  0
    1.7710   -1.6560   22.2670 C   0  0  0  0  0  0  0  0  0  0  0  0
    2.9080   -1.8350   22.6960 O   0  0  0  0  0  0  0  0  0  0  0  0
    0.9690   -0.5670   22.5410 N   0  0  0  0  0  0  0  0  0  0  0  0
    1.3970    0.5310   23.3990 C   0  0  1  0  0  0  0  0  0  0  0  0
    2.8460    0.9470   23.1520 C   0  0  0  0  0  0  0  0  0  0  0  0
    3.7740    0.7340   24.1470 C   0  0  0  0  0  0  0  0  0  0  0  0
    5.0970    1.1150   23.9220 C   0  0  0  0  0  0  0  0  0  0  0  0
    5.4580    1.6970   22.7070 C   0  0  0  0  0  0  0  0  0  0  0  0
    6.7960    2.0800   22.4800 N   0  0  0  0  0  0  0  0  0  0  0  0
    7.4650    2.9860   23.3930 C   0  0  0  0  0  0  0  0  0  0  0  0
    7.5230    1.5630   21.3380 C   0  0  0  0  0  0  0  0  0  0  0  0
    4.4950    1.8990   21.7180 C   0  0  0  0  0  0  0  0  0  0  0  0
    3.1730    1.5200   21.9430 C   0  0  0  0  0  0  0  0  0  0  0  0
    0.4260    1.6600   23.2910 C   0  0  0  0  0  0  0  0  0  0  0  0
    0.8810    2.9630   23.4590 C   0  0  0  0  0  0  0  0  0  0  0  0
   -0.0170    4.0210   23.3600 C   0  0  0  0  0  0  0  0  0  0  0  0
   -1.3760    3.7790   23.0910 C   0  0  0  0  0  0  0  0  0  0  0  0
   -2.3010    4.8260   22.9870 C   0  0  0  0  0  0  0  0  0  0  0  0
   -3.6360    4.5550   22.7210 C   0  0  0  0  0  0  0  0  0  0  0  0
   -3.9990    3.2320   22.5690 C   0  0  0  0  0  0  0  0  0  0  0  0
   -3.1380    2.1930   22.6630 N   0  0  0  0  0  0  0  0  0  0  0  0
   -1.8440    2.4600   22.9200 C   0  0  0  0  0  0  0  0  0  0  0  0
   -0.9240    1.4200   23.0240 C   0  0  0  0  0  0  0  0  0  0  0  0
   -1.3500    0.1290   22.8630 O   0  0  0  0  0  0  0  0  0  0  0  0
   -0.6916   -2.6099   22.5893 H   0  0  0  0  0  0  0  0  0  0  0  0
   -0.8489   -1.7090   21.0432 H   0  0  0  0  0  0  0  0  0  0  0  0
   -0.8787   -3.5050   21.0432 H   0  0  0  0  0  0  0  0  0  0  0  0
    1.4289   -3.6529   21.5744 H   0  0  0  0  0  0  0  0  0  0  0  0
    1.2910   -2.3483   20.3132 H   0  0  0  0  0  0  0  0  0  0  0  0
    0.0580   -0.5080   22.0950 H   0  0  0  0  0  0  0  0  0  0  0  0
    1.3912    0.1819   24.4421 H   0  0  0  0  0  0  0  0  0  0  0  0
    3.4778    0.2725   25.1005 H   0  0  0  0  0  0  0  0  0  0  0  0
    5.8554    0.9564   24.7028 H   0  0  0  0  0  0  0  0  0  0  0  0
    7.2462    2.6897   24.4295 H   0  0  0  0  0  0  0  0  0  0  0  0
    8.5507    2.9443   23.2211 H   0  0  0  0  0  0  0  0  0  0  0  0
    7.1057    4.0113   23.2211 H   0  0  0  0  0  0  0  0  0  0  0  0
    8.3730    0.9585   21.6875 H   0  0  0  0  0  0  0  0  0  0  0  0
    6.8534    0.9371   20.7298 H   0  0  0  0  0  0  0  0  0  0  0  0
    7.8944    2.4009   20.7298 H   0  0  0  0  0  0  0  0  0  0  0  0
    4.7795    2.3579   20.7596 H   0  0  0  0  0  0  0  0  0  0  0  0
    2.4057    1.6754   21.1702 H   0  0  0  0  0  0  0  0  0  0  0  0
    1.9434    3.1560   23.6687 H   0  0  0  0  0  0  0  0  0  0  0  0
    0.3383    5.0535   23.4930 H   0  0  0  0  0  0  0  0  0  0  0  0
   -1.9681    5.8664   23.1166 H   0  0  0  0  0  0  0  0  0  0  0  0
   -4.3766    5.3638   22.6346 H   0  0  0  0  0  0  0  0  0  0  0  0
   -5.0552    3.0085   22.3581 H   0  0  0  0  0  0  0  0  0  0  0  0
   -2.2980    0.1450   22.6480 H   0  0  0  0  0  0  0  0  0  0  0  0
  1  2  1  0  0  0  0
  1 27  1  0  0  0  0
  1 28  1  0  0  0  0
  1 29  1  0  0  0  0
  2  3  1  0  0  0  0
  2 30  1  0  0  0  0
  2 31  1  0  0  0  0
  3  4  2  0  0  0  0
  3  5  1  0  0  0  0
  5  6  1  0  0  0  0
  5 32  1  0  0  0  0
  6  7  1  0  0  0  0
  6 16  1  0  0  0  0
  6 33  1  1  0  0  0
  7  8  2  0  0  0  0
  8  9  1  0  0  0  0
  8 34  1  0  0  0  0
  9 10  2  0  0  0  0
  9 35  1  0  0  0  0
 10 11  1  0  0  0  0
 10 14  1  0  0  0  0
 11 12  1  0  0  0  0
 11 13  1  0  0  0  0
 12 36  1  0  0  0  0
 12 37  1  0  0  0  0
 12 38  1  0  0  0  0
 13 39  1  0  0  0  0
 13 40  1  0  0  0  0
 13 41  1  0  0  0  0
 14 15  2  0  0  0  0
 14 42  1  0  0  0  0
 15  7  1  0  0  0  0
 15 43  1  0  0  0  0
 16 17  2  0  0  0  0
 17 18  1  0  0  0  0
 17 44  1  0  0  0  0
 18 19  2  0  0  0  0
 18 45  1  0  0  0  0
 19 20  1  0  0  0  0
 20 21  2  0  0  0  0
 20 46  1  0  0  0  0
 21 22  1  0  0  0  0
 21 47  1  0  0  0  0
 22 23  2  0  0  0  0
 22 48  1  0  0  0  0
 23 24  1  0  0  0  0
 24 25  2  0  0  0  0
 24 19  1  0  0  0  0
 25 26  1  0  0  0  0
 25 16  1  0  0  0  0
 26 49  1  0  0  0  0
M  END
>  <meeko>
{"free_energy": -7.718, "intermolecular_energy": -9.508, "internal_energy": -2.064}

$$$$
