
 OpenBabel07302301283D

 49 51  0  0  0  0  0  0  0  0999 V2000
   -0.4260    4.1110   26.8330 C   0  0  0  0  0  0  0  0  0  0  0  0
   -0.8080    4.9210   25.6080 C   0  0  0  0  0  0  0  0  0  0  0  0
   -1.6200    4.1180   24.6070 C   0  0  0  0  0  0  0  0  0  0  0  0
   -2.6250    4.5560   24.0520 O   0  0  0  0  0  0  0  0  0  0  0  0
   -1.0810    2.8610   24.4220 N   0  0  0  0  0  0  0  0  0  0  0  0
   -1.6630    1.8800   23.5150 C   0  0  1  0  0  0  0  0  0  0  0  0
   -2.2990    2.5160   22.2820 C   0  0  0  0  0  0  0  0  0  0  0  0
   -3.6700    2.4820   22.1520 C   0  0  0  0  0  0  0  0  0  0  0  0
   -4.2510    3.0630   21.0250 C   0  0  0  0  0  0  0  0  0  0  0  0
   -3.4470    3.6640   20.0560 C   0  0  0  0  0  0  0  0  0  0  0  0
   -4.0350    4.2520   18.9180 N   0  0  0  0  0  0  0  0  0  0  0  0
   -5.3800    3.8890   18.5170 C   0  0  0  0  0  0  0  0  0  0  0  0
   -3.3080    5.2360   18.1420 C   0  0  0  0  0  0  0  0  0  0  0  0
   -2.0610    3.6830   20.2160 C   0  0  0  0  0  0  0  0  0  0  0  0
   -1.4800    3.1020   21.3420 C   0  0  0  0  0  0  0  0  0  0  0  0
   -0.6480    0.8330   23.1900 C   0  0  0  0  0  0  0  0  0  0  0  0
   -1.0680   -0.3620   22.6200 C   0  0  0  0  0  0  0  0  0  0  0  0
   -0.1290   -1.3430   22.3130 C   0  0  0  0  0  0  0  0  0  0  0  0
    1.2350   -1.1300   22.5770 C   0  0  0  0  0  0  0  0  0  0  0  0
    2.2010   -2.1000   22.2790 C   0  0  0  0  0  0  0  0  0  0  0  0
    3.5400   -1.8590   22.5500 C   0  0  0  0  0  0  0  0  0  0  0  0
    3.8670   -0.6440   23.1170 C   0  0  0  0  0  0  0  0  0  0  0  0
    2.9670    0.3190   23.4210 N   0  0  0  0  0  0  0  0  0  0  0  0
    1.6680    0.0820   23.1550 C   0  0  0  0  0  0  0  0  0  0  0  0
    0.7070    1.0460   23.4510 C   0  0  0  0  0  0  0  0  0  0  0  0
    1.0990    2.2310   24.0130 O   0  0  0  0  0  0  0  0  0  0  0  0
   -0.6908    4.6725   27.7411 H   0  0  0  0  0  0  0  0  0  0  0  0
   -0.9675    3.1536   26.8230 H   0  0  0  0  0  0  0  0  0  0  0  0
    0.6572    3.9198   26.8230 H   0  0  0  0  0  0  0  0  0  0  0  0
   -1.4037    5.7877   25.9304 H   0  0  0  0  0  0  0  0  0  0  0  0
    0.1226    5.2310   25.1100 H   0  0  0  0  0  0  0  0  0  0  0  0
   -0.2200    2.6240   24.9080 H   0  0  0  0  0  0  0  0  0  0  0  0
   -2.5027    1.3865   24.0262 H   0  0  0  0  0  0  0  0  0  0  0  0
   -4.2945    2.0058   22.9222 H   0  0  0  0  0  0  0  0  0  0  0  0
   -5.3438    3.0474   20.9001 H   0  0  0  0  0  0  0  0  0  0  0  0
   -5.9971    3.7224   19.4122 H   0  0  0  0  0  0  0  0  0  0  0  0
   -5.8157    4.7017   17.9173 H   0  0  0  0  0  0  0  0  0  0  0  0
   -5.3477    2.9674   17.9173 H   0  0  0  0  0  0  0  0  0  0  0  0
   -2.7939    5.9318   18.8214 H   0  0  0  0  0  0  0  0  0  0  0  0
   -2.5667    4.7279   17.5077 H   0  0  0  0  0  0  0  0  0  0  0  0
   -4.0114    5.7954   17.5077 H   0  0  0  0  0  0  0  0  0  0  0  0
   -1.4262    4.1569   19.4528 H   0  0  0  0  0  0  0  0  0  0  0  0
   -0.3884    3.1112   21.4774 H   0  0  0  0  0  0  0  0  0  0  0  0
   -2.1348   -0.5321   22.4127 H   0  0  0  0  0  0  0  0  0  0  0  0
   -0.4567   -2.2908   21.8610 H   0  0  0  0  0  0  0  0  0  0  0  0
    1.8966   -3.0562   21.8285 H   0  0  0  0  0  0  0  0  0  0  0  0
    4.3122   -2.6083   22.3215 H   0  0  0  0  0  0  0  0  0  0  0  0
    4.9267   -0.4461   23.3356 H   0  0  0  0  0  0  0  0  0  0  0  0
    2.0630    2.2060   24.1390 H   0  0  0  0  0  0  0  0  0  0  0  0
  1  2  1  0  0  0  0
  1 27  1  0  0  0  0
  1 28  1  0  0  0  0
  1 29  1  0  0  0  0
  2  3  1  0  0  0  0
  2 30  1  0  0  0  0
  2 31  1  0  0  0  0
  3  4  2  0  0  0  0
  3  5  1  0  0  0  0
  5  6  1  0  0  0  0
  5 32  1  0  0  0  0
  6  7  1  0  0  0  0
  6 16  1  0  0  0  0
  6 33  1  1  0  0  0
  7  8  2  0  0  0  0
  8  9  1  0  0  0  0
  8 34  1  0  0  0  0
  9 10  2  0  0  0  0
  9 35  1  0  0  0  0
 10 11  1  0  0  0  0
 10 14  1  0  0  0  0
 11 12  1  0  0  0  0
 11 13  1  0  0  0  0
 12 36  1  0  0  0  0
 12 37  1  0  0  0  0
 12 38  1  0  0  0  0
 13 39  1  0  0  0  0
 13 40  1  0  0  0  0
 13 41  1  0  0  0  0
 14 15  2  0  0  0  0
 14 42  1  0  0  0  0
 15  7  1  0  0  0  0
 15 43  1  0  0  0  0
 16 17  2  0  0  0  0
 17 18  1  0  0  0  0
 17 44  1  0  0  0  0
 18 19  2  0  0  0  0
 18 45  1  0  0  0  0
 19 20  1  0  0  0  0
 20 21  2  0  0  0  0
 20 46  1  0  0  0  0
 21 22  1  0  0  0  0
 21 47  1  0  0  0  0
 22 23  2  0  0  0  0
 22 48  1  0  0  0  0
 23 24  1  0  0  0  0
 24 25  2  0  0  0  0
 24 19  1  0  0  0  0
 25 26  1  0  0  0  0
 25 16  1  0  0  0  0
 26 49  1  0  0  0  0
M  END
>  <meeko>
{"free_energy": -7.307, "intermolecular_energy": -9.097, "internal_energy": -1.848}

$$$$
