
 OpenBabel07302301283D

 49 51  0  0  0  0  0  0  0  0999 V2000
   -0.0720    4.2630   27.0040 C   0  0  0  0  0  0  0  0  0  0  0  0
   -0.8080    4.9570   25.8730 C   0  0  0  0  0  0  0  0  0  0  0  0
   -0.8620    4.1170   24.6090 C   0  0  0  0  0  0  0  0  0  0  0  0
   -0.2790    4.4250   23.5730 O   0  0  0  0  0  0  0  0  0  0  0  0
   -1.6430    2.9940   24.7910 N   0  0  0  0  0  0  0  0  0  0  0  0
   -1.8700    2.0130   23.7370 C   0  0  1  0  0  0  0  0  0  0  0  0
   -2.4070    2.6370   22.4510 C   0  0  0  0  0  0  0  0  0  0  0  0
   -1.5820    2.6960   21.3500 C   0  0  0  0  0  0  0  0  0  0  0  0
   -2.0720    3.2670   20.1750 C   0  0  0  0  0  0  0  0  0  0  0  0
   -3.3750    3.7630   20.1320 C   0  0  0  0  0  0  0  0  0  0  0  0
   -3.8700    4.3390   18.9440 N   0  0  0  0  0  0  0  0  0  0  0  0
   -5.2320    4.0840   18.5170 C   0  0  0  0  0  0  0  0  0  0  0  0
   -3.0290    5.2050   18.1430 C   0  0  0  0  0  0  0  0  0  0  0  0
   -4.1870    3.6890   21.2640 C   0  0  0  0  0  0  0  0  0  0  0  0
   -3.6970    3.1190   22.4380 C   0  0  0  0  0  0  0  0  0  0  0  0
   -0.6330    1.2000   23.5340 C   0  0  0  0  0  0  0  0  0  0  0  0
    0.5720    1.6610   24.0500 C   0  0  0  0  0  0  0  0  0  0  0  0
    1.7290    0.9110   23.8660 C   0  0  0  0  0  0  0  0  0  0  0  0
    1.6840   -0.3060   23.1640 C   0  0  0  0  0  0  0  0  0  0  0  0
    2.8340   -1.0820   22.9630 C   0  0  0  0  0  0  0  0  0  0  0  0
    2.7560   -2.2790   22.2670 C   0  0  0  0  0  0  0  0  0  0  0  0
    1.5180   -2.6600   21.7900 C   0  0  0  0  0  0  0  0  0  0  0  0
    0.3850   -1.9420   21.9610 N   0  0  0  0  0  0  0  0  0  0  0  0
    0.4640   -0.7810   22.6380 C   0  0  0  0  0  0  0  0  0  0  0  0
   -0.6780   -0.0090   22.8380 C   0  0  0  0  0  0  0  0  0  0  0  0
   -1.8760   -0.4450   22.3380 O   0  0  0  0  0  0  0  0  0  0  0  0
   -0.4566    4.6256   27.9687 H   0  0  0  0  0  0  0  0  0  0  0  0
   -0.2291    3.1767   26.9316 H   0  0  0  0  0  0  0  0  0  0  0  0
    1.0032    4.4836   26.9316 H   0  0  0  0  0  0  0  0  0  0  0  0
   -1.8369    5.1685   26.1997 H   0  0  0  0  0  0  0  0  0  0  0  0
   -0.2596    5.8806   25.6360 H   0  0  0  0  0  0  0  0  0  0  0  0
   -2.0450    2.8230   25.7090 H   0  0  0  0  0  0  0  0  0  0  0  0
   -2.6709    1.3318   24.0602 H   0  0  0  0  0  0  0  0  0  0  0  0
   -0.5565    2.3006   21.3960 H   0  0  0  0  0  0  0  0  0  0  0  0
   -1.4311    3.3260   19.2830 H   0  0  0  0  0  0  0  0  0  0  0  0
   -5.8766    3.9633   19.4001 H   0  0  0  0  0  0  0  0  0  0  0  0
   -5.5916    4.9304   17.9135 H   0  0  0  0  0  0  0  0  0  0  0  0
   -5.2610    3.1648   17.9135 H   0  0  0  0  0  0  0  0  0  0  0  0
   -2.4167    5.8355   18.8044 H   0  0  0  0  0  0  0  0  0  0  0  0
   -2.3716    4.5928   17.5082 H   0  0  0  0  0  0  0  0  0  0  0  0
   -3.6602    5.8442   17.5082 H   0  0  0  0  0  0  0  0  0  0  0  0
   -5.2144    4.0806   21.2302 H   0  0  0  0  0  0  0  0  0  0  0  0
   -4.3284    3.0555   23.3365 H   0  0  0  0  0  0  0  0  0  0  0  0
    0.6107    2.6127   24.6003 H   0  0  0  0  0  0  0  0  0  0  0  0
    2.6851    1.2725   24.2724 H   0  0  0  0  0  0  0  0  0  0  0  0
    3.8018   -0.7403   23.3588 H   0  0  0  0  0  0  0  0  0  0  0  0
    3.6475   -2.9016   22.1012 H   0  0  0  0  0  0  0  0  0  0  0  0
    1.4487   -3.6076   21.2357 H   0  0  0  0  0  0  0  0  0  0  0  0
   -1.7100   -1.2260   21.7840 H   0  0  0  0  0  0  0  0  0  0  0  0
  1  2  1  0  0  0  0
  1 27  1  0  0  0  0
  1 28  1  0  0  0  0
  1 29  1  0  0  0  0
  2  3  1  0  0  0  0
  2 30  1  0  0  0  0
  2 31  1  0  0  0  0
  3  4  2  0  0  0  0
  3  5  1  0  0  0  0
  5  6  1  0  0  0  0
  5 32  1  0  0  0  0
  6  7  1  0  0  0  0
  6 16  1  0  0  0  0
  6 33  1  1  0  0  0
  7  8  2  0  0  0  0
  8  9  1  0  0  0  0
  8 34  1  0  0  0  0
  9 10  2  0  0  0  0
  9 35  1  0  0  0  0
 10 11  1  0  0  0  0
 10 14  1  0  0  0  0
 11 12  1  0  0  0  0
 11 13  1  0  0  0  0
 12 36  1  0  0  0  0
 12 37  1  0  0  0  0
 12 38  1  0  0  0  0
 13 39  1  0  0  0  0
 13 40  1  0  0  0  0
 13 41  1  0  0  0  0
 14 15  2  0  0  0  0
 14 42  1  0  0  0  0
 15  7  1  0  0  0  0
 15 43  1  0  0  0  0
 16 17  2  0  0  0  0
 17 18  1  0  0  0  0
 17 44  1  0  0  0  0
 18 19  2  0  0  0  0
 18 45  1  0  0  0  0
 19 20  1  0  0  0  0
 20 21  2  0  0  0  0
 20 46  1  0  0  0  0
 21 22  1  0  0  0  0
 21 47  1  0  0  0  0
 22 23  2  0  0  0  0
 22 48  1  0  0  0  0
 23 24  1  0  0  0  0
 24 25  2  0  0  0  0
 24 19  1  0  0  0  0
 25 26  1  0  0  0  0
 25 16  1  0  0  0  0
 26 49  1  0  0  0  0
M  END
>  <meeko>
{"free_energy": -7.366, "intermolecular_energy": -9.156, "internal_energy": -1.594}

$$$$
