MODEL 1
REMARK VINA RESULT:    -8.146      0.000      0.000
REMARK INTER + INTRA:         -11.465
REMARK INTER:                  -9.936
REMARK INTRA:                  -1.529
REMARK CONF_INDEPENDENT:        1.790
REMARK UNBOUND:                 1.529
REMARK SMILES CCC(=O)NC(c1ccc(N(C)C)cc1)c1ccc2cccnc2c1O
REMARK SMILES IDX 6 1 16 2 25 3 24 4 17 5 23 6 19 7 18 8 22 9 20 10 21 11
REMARK SMILES IDX 26 12 5 14 3 15 4 17 2 18 1 19 7 20 8 21 15 22 9 23 14 24
REMARK SMILES IDX 10 25 11 26 12 27 13 28
REMARK H PARENT 26 13 5 16
REMARK Flexibility Score: inf
ROOT
ATOM      1  C   UNL     1       3.508   1.096  23.599  1.00  0.00     0.146 C 
ENDROOT
BRANCH   1   2
ATOM      2  C   UNL     1       3.836  -0.355  23.733  1.00  0.00     0.023 A 
ATOM      3  C   UNL     1       4.673  -0.808  24.755  1.00  0.00     0.147 A 
ATOM      4  C   UNL     1       4.990  -2.157  24.896  1.00  0.00     0.112 A 
ATOM      5  C   UNL     1       3.297  -1.257  22.823  1.00  0.00     0.011 A 
ATOM      6  N   UNL     1       5.800  -2.560  25.893  1.00  0.00    -0.252 NA
ATOM      7  C   UNL     1       4.440  -3.067  23.969  1.00  0.00     0.004 A 
ATOM      8  C   UNL     1       3.597  -2.611  22.940  1.00  0.00     0.011 A 
ATOM      9  C   UNL     1       6.082  -3.879  25.993  1.00  0.00     0.112 A 
ATOM     10  C   UNL     1       4.758  -4.425  24.110  1.00  0.00     0.012 A 
ATOM     11  C   UNL     1       5.592  -4.844  25.136  1.00  0.00     0.021 A 
BRANCH   3  12
ATOM     12  O   UNL     1       5.192   0.098  25.640  1.00  0.00    -0.505 OA
ATOM     13  H   UNL     1       5.567  -0.391  26.393  1.00  0.00     0.293 HD
ENDBRANCH   3  12
ENDBRANCH   1   2
BRANCH   1  14
ATOM     14  N   UNL     1       4.418   1.717  22.645  1.00  0.00    -0.345 N 
ATOM     15  C   UNL     1       5.755   1.926  22.917  1.00  0.00     0.220 C 
ATOM     16  H   UNL     1       4.043   2.047  21.760  1.00  0.00     0.164 HD
ATOM     17  O   UNL     1       6.331   1.624  23.959  1.00  0.00    -0.275 OA
BRANCH  15  18
ATOM     18  C   UNL     1       6.456   2.586  21.743  1.00  0.00     0.096 C 
ATOM     19  C   UNL     1       7.784   1.931  21.412  1.00  0.00     0.014 C 
ENDBRANCH  15  18
ENDBRANCH   1  14
BRANCH   1  20
ATOM     20  C   UNL     1       2.039   1.362  23.278  1.00  0.00    -0.021 A 
ATOM     21  C   UNL     1       1.733   2.236  22.258  1.00  0.00     0.008 A 
ATOM     22  C   UNL     1       1.072   0.719  24.018  1.00  0.00     0.008 A 
ATOM     23  C   UNL     1       0.391   2.480  21.965  1.00  0.00     0.026 A 
ATOM     24  C   UNL     1      -0.269   0.962  23.725  1.00  0.00     0.026 A 
ATOM     25  C   UNL     1      -0.610   1.843  22.698  1.00  0.00     0.036 A 
BRANCH  25  26
ATOM     26  N   UNL     1      -1.966   2.088  22.400  1.00  0.00    -0.378 N 
ATOM     27  C   UNL     1      -2.990   1.863  23.401  1.00  0.00     0.143 C 
ATOM     28  C   UNL     1      -2.352   2.583  21.094  1.00  0.00     0.143 C 
ENDBRANCH  25  26
ENDBRANCH   1  20
TORSDOF 6
ENDMDL
MODEL 2
REMARK VINA RESULT:    -7.718      2.902      7.728
REMARK INTER + INTRA:         -11.572
REMARK INTER:                  -9.508
REMARK INTRA:                  -2.064
REMARK CONF_INDEPENDENT:        1.790
REMARK UNBOUND:                 2.064
REMARK SMILES CCC(=O)NC(c1ccc(N(C)C)cc1)c1ccc2cccnc2c1O
REMARK SMILES IDX 6 1 16 2 25 3 24 4 17 5 23 6 19 7 18 8 22 9 20 10 21 11
REMARK SMILES IDX 26 12 5 14 3 15 4 17 2 18 1 19 7 20 8 21 15 22 9 23 14 24
REMARK SMILES IDX 10 25 11 26 12 27 13 28
REMARK H PARENT 26 13 5 16
REMARK Flexibility Score: inf
ROOT
ATOM      1  C   UNL     1       1.397   0.531  23.399  1.00  0.00     0.146 C 
ENDROOT
BRANCH   1   2
ATOM      2  C   UNL     1       0.426   1.660  23.291  1.00  0.00     0.023 A 
ATOM      3  C   UNL     1      -0.924   1.420  23.024  1.00  0.00     0.147 A 
ATOM      4  C   UNL     1      -1.844   2.460  22.920  1.00  0.00     0.112 A 
ATOM      5  C   UNL     1       0.881   2.963  23.459  1.00  0.00     0.011 A 
ATOM      6  N   UNL     1      -3.138   2.193  22.663  1.00  0.00    -0.252 NA
ATOM      7  C   UNL     1      -1.376   3.779  23.091  1.00  0.00     0.004 A 
ATOM      8  C   UNL     1      -0.017   4.021  23.360  1.00  0.00     0.011 A 
ATOM      9  C   UNL     1      -3.999   3.232  22.569  1.00  0.00     0.112 A 
ATOM     10  C   UNL     1      -2.301   4.826  22.987  1.00  0.00     0.012 A 
ATOM     11  C   UNL     1      -3.636   4.555  22.721  1.00  0.00     0.021 A 
BRANCH   3  12
ATOM     12  O   UNL     1      -1.350   0.129  22.863  1.00  0.00    -0.505 OA
ATOM     13  H   UNL     1      -2.298   0.145  22.648  1.00  0.00     0.293 HD
ENDBRANCH   3  12
ENDBRANCH   1   2
BRANCH   1  14
ATOM     14  N   UNL     1       0.969  -0.567  22.541  1.00  0.00    -0.345 N 
ATOM     15  C   UNL     1       1.771  -1.656  22.267  1.00  0.00     0.220 C 
ATOM     16  H   UNL     1       0.058  -0.508  22.095  1.00  0.00     0.164 HD
ATOM     17  O   UNL     1       2.908  -1.835  22.696  1.00  0.00    -0.275 OA
BRANCH  15  18
ATOM     18  C   UNL     1       1.066  -2.639  21.350  1.00  0.00     0.096 C 
ATOM     19  C   UNL     1      -0.442  -2.614  21.518  1.00  0.00     0.014 C 
ENDBRANCH  15  18
ENDBRANCH   1  14
BRANCH   1  20
ATOM     20  C   UNL     1       2.846   0.947  23.152  1.00  0.00    -0.021 A 
ATOM     21  C   UNL     1       3.774   0.734  24.147  1.00  0.00     0.008 A 
ATOM     22  C   UNL     1       3.173   1.520  21.943  1.00  0.00     0.008 A 
ATOM     23  C   UNL     1       5.097   1.115  23.922  1.00  0.00     0.026 A 
ATOM     24  C   UNL     1       4.495   1.899  21.718  1.00  0.00     0.026 A 
ATOM     25  C   UNL     1       5.458   1.697  22.707  1.00  0.00     0.036 A 
BRANCH  25  26
ATOM     26  N   UNL     1       6.796   2.080  22.480  1.00  0.00    -0.378 N 
ATOM     27  C   UNL     1       7.465   2.986  23.393  1.00  0.00     0.143 C 
ATOM     28  C   UNL     1       7.523   1.563  21.338  1.00  0.00     0.143 C 
ENDBRANCH  25  26
ENDBRANCH   1  20
TORSDOF 6
ENDMDL
MODEL 3
REMARK VINA RESULT:    -7.646      1.753      4.381
REMARK INTER + INTRA:         -11.298
REMARK INTER:                  -9.436
REMARK INTRA:                  -1.862
REMARK CONF_INDEPENDENT:        1.790
REMARK UNBOUND:                 1.862
REMARK SMILES CCC(=O)NC(c1ccc(N(C)C)cc1)c1ccc2cccnc2c1O
REMARK SMILES IDX 6 1 16 2 25 3 24 4 17 5 23 6 19 7 18 8 22 9 20 10 21 11
REMARK SMILES IDX 26 12 5 14 3 15 4 17 2 18 1 19 7 20 8 21 15 22 9 23 14 24
REMARK SMILES IDX 10 25 11 26 12 27 13 28
REMARK H PARENT 26 13 5 16
REMARK Flexibility Score: inf
ROOT
ATOM      1  C   UNL     1       3.187  -0.821  23.179  1.00  0.00     0.146 C 
ENDROOT
BRANCH   1   2
ATOM      2  C   UNL     1       4.338   0.055  22.806  1.00  0.00     0.023 A 
ATOM      3  C   UNL     1       5.194   0.565  23.784  1.00  0.00     0.147 A 
ATOM      4  C   UNL     1       6.272   1.383  23.456  1.00  0.00     0.112 A 
ATOM      5  C   UNL     1       4.549   0.361  21.467  1.00  0.00     0.011 A 
ATOM      6  N   UNL     1       7.080   1.858  24.423  1.00  0.00    -0.252 NA
ATOM      7  C   UNL     1       6.481   1.690  22.094  1.00  0.00     0.004 A 
ATOM      8  C   UNL     1       5.618   1.177  21.110  1.00  0.00     0.011 A 
ATOM      9  C   UNL     1       8.115   2.649  24.060  1.00  0.00     0.112 A 
ATOM     10  C   UNL     1       7.566   2.513  21.763  1.00  0.00     0.012 A 
ATOM     11  C   UNL     1       8.399   3.004  22.757  1.00  0.00     0.021 A 
BRANCH   3  12
ATOM     12  O   UNL     1       4.968   0.251  25.097  1.00  0.00    -0.505 OA
ATOM     13  H   UNL     1       5.610   0.736  25.642  1.00  0.00     0.293 HD
ENDBRANCH   3  12
ENDBRANCH   1   2
BRANCH   1  14
ATOM     14  N   UNL     1       3.497  -1.539  24.409  1.00  0.00    -0.345 N 
ATOM     15  C   UNL     1       4.289  -2.670  24.433  1.00  0.00     0.220 C 
ATOM     16  H   UNL     1       3.080  -1.218  25.278  1.00  0.00     0.164 HD
ATOM     17  O   UNL     1       4.817  -3.196  23.457  1.00  0.00    -0.275 OA
BRANCH  15  18
ATOM     18  C   UNL     1       4.442  -3.201  25.847  1.00  0.00     0.096 C 
ATOM     19  C   UNL     1       5.816  -2.925  26.429  1.00  0.00     0.014 C 
ENDBRANCH  15  18
ENDBRANCH   1  14
BRANCH   1  20
ATOM     20  C   UNL     1       1.853  -0.080  23.246  1.00  0.00    -0.021 A 
ATOM     21  C   UNL     1       0.707  -0.748  22.875  1.00  0.00     0.008 A 
ATOM     22  C   UNL     1       1.844   1.229  23.674  1.00  0.00     0.008 A 
ATOM     23  C   UNL     1      -0.512  -0.071  22.935  1.00  0.00     0.026 A 
ATOM     24  C   UNL     1       0.626   1.905  23.734  1.00  0.00     0.026 A 
ATOM     25  C   UNL     1      -0.553   1.256  23.365  1.00  0.00     0.036 A 
BRANCH  25  26
ATOM     26  N   UNL     1      -1.785   1.939  23.427  1.00  0.00    -0.378 N 
ATOM     27  C   UNL     1      -1.933   3.109  24.269  1.00  0.00     0.143 C 
ATOM     28  C   UNL     1      -2.913   1.488  22.637  1.00  0.00     0.143 C 
ENDBRANCH  25  26
ENDBRANCH   1  20
TORSDOF 6
ENDMDL
MODEL 4
REMARK VINA RESULT:    -7.615      1.797      4.631
REMARK INTER + INTRA:          -9.545
REMARK INTER:                  -9.405
REMARK INTRA:                  -0.140
REMARK CONF_INDEPENDENT:        1.790
REMARK UNBOUND:                 0.140
REMARK SMILES CCC(=O)NC(c1ccc(N(C)C)cc1)c1ccc2cccnc2c1O
REMARK SMILES IDX 6 1 16 2 25 3 24 4 17 5 23 6 19 7 18 8 22 9 20 10 21 11
REMARK SMILES IDX 26 12 5 14 3 15 4 17 2 18 1 19 7 20 8 21 15 22 9 23 14 24
REMARK SMILES IDX 10 25 11 26 12 27 13 28
REMARK H PARENT 26 13 5 16
REMARK Flexibility Score: inf
ROOT
ATOM      1  C   UNL     1       3.360   0.081  22.685  1.00  0.00     0.146 C 
ENDROOT
BRANCH   1   2
ATOM      2  C   UNL     1       4.621   0.845  22.924  1.00  0.00     0.023 A 
ATOM      3  C   UNL     1       5.588   0.960  21.924  1.00  0.00     0.147 A 
ATOM      4  C   UNL     1       6.770   1.667  22.128  1.00  0.00     0.112 A 
ATOM      5  C   UNL     1       4.825   1.443  24.161  1.00  0.00     0.011 A 
ATOM      6  N   UNL     1       7.682   1.759  21.141  1.00  0.00    -0.252 NA
ATOM      7  C   UNL     1       6.971   2.273  23.386  1.00  0.00     0.004 A 
ATOM      8  C   UNL     1       5.997   2.157  24.393  1.00  0.00     0.011 A 
ATOM      9  C   UNL     1       8.816   2.456  21.382  1.00  0.00     0.112 A 
ATOM     10  C   UNL     1       8.160   2.986  23.592  1.00  0.00     0.012 A 
ATOM     11  C   UNL     1       9.101   3.082  22.578  1.00  0.00     0.021 A 
BRANCH   3  12
ATOM     12  O   UNL     1       5.367   0.361  20.712  1.00  0.00    -0.505 OA
ATOM     13  H   UNL     1       4.821   0.958  20.172  1.00  0.00     0.293 HD
ENDBRANCH   3  12
ENDBRANCH   1   2
BRANCH   1  14
ATOM     14  N   UNL     1       3.412  -1.187  23.402  1.00  0.00    -0.345 N 
ATOM     15  C   UNL     1       4.544  -1.629  24.055  1.00  0.00     0.220 C 
ATOM     16  H   UNL     1       2.592  -1.787  23.388  1.00  0.00     0.164 HD
ATOM     17  O   UNL     1       5.617  -1.033  24.114  1.00  0.00    -0.275 OA
BRANCH  15  18
ATOM     18  C   UNL     1       4.306  -2.975  24.715  1.00  0.00     0.096 C 
ATOM     19  C   UNL     1       4.813  -4.134  23.877  1.00  0.00     0.014 C 
ENDBRANCH  15  18
ENDBRANCH   1  14
BRANCH   1  20
ATOM     20  C   UNL     1       2.096   0.882  22.986  1.00  0.00    -0.021 A 
ATOM     21  C   UNL     1       2.097   2.237  22.741  1.00  0.00     0.008 A 
ATOM     22  C   UNL     1       0.998   0.221  23.492  1.00  0.00     0.008 A 
ATOM     23  C   UNL     1       0.943   2.970  23.017  1.00  0.00     0.026 A 
ATOM     24  C   UNL     1      -0.157   0.953  23.767  1.00  0.00     0.026 A 
ATOM     25  C   UNL     1      -0.185   2.328  23.530  1.00  0.00     0.036 A 
BRANCH  25  26
ATOM     26  N   UNL     1      -1.352   3.068  23.808  1.00  0.00    -0.378 N 
ATOM     27  C   UNL     1      -1.272   4.320  24.533  1.00  0.00     0.143 C 
ATOM     28  C   UNL     1      -2.646   2.594  23.359  1.00  0.00     0.143 C 
ENDBRANCH  25  26
ENDBRANCH   1  20
TORSDOF 6
ENDMDL
MODEL 5
REMARK VINA RESULT:    -7.609      1.505      6.695
REMARK INTER + INTRA:         -11.153
REMARK INTER:                  -9.399
REMARK INTRA:                  -1.753
REMARK CONF_INDEPENDENT:        1.790
REMARK UNBOUND:                 1.753
REMARK SMILES CCC(=O)NC(c1ccc(N(C)C)cc1)c1ccc2cccnc2c1O
REMARK SMILES IDX 6 1 16 2 25 3 24 4 17 5 23 6 19 7 18 8 22 9 20 10 21 11
REMARK SMILES IDX 26 12 5 14 3 15 4 17 2 18 1 19 7 20 8 21 15 22 9 23 14 24
REMARK SMILES IDX 10 25 11 26 12 27 13 28
REMARK H PARENT 26 13 5 16
REMARK Flexibility Score: inf
ROOT
ATOM      1  C   UNL     1       3.763   0.099  22.915  1.00  0.00     0.146 C 
ENDROOT
BRANCH   1   2
ATOM      2  C   UNL     1       2.294   0.363  22.984  1.00  0.00     0.023 A 
ATOM      3  C   UNL     1       1.790   1.652  22.798  1.00  0.00     0.147 A 
ATOM      4  C   UNL     1       0.425   1.919  22.859  1.00  0.00     0.112 A 
ATOM      5  C   UNL     1       1.428  -0.693  23.239  1.00  0.00     0.011 A 
ATOM      6  N   UNL     1      -0.028   3.173  22.674  1.00  0.00    -0.252 NA
ATOM      7  C   UNL     1      -0.450   0.842  23.118  1.00  0.00     0.004 A 
ATOM      8  C   UNL     1       0.058  -0.455  23.306  1.00  0.00     0.011 A 
ATOM      9  C   UNL     1      -1.362   3.388  22.742  1.00  0.00     0.112 A 
ATOM     10  C   UNL     1      -1.824   1.109  23.180  1.00  0.00     0.012 A 
ATOM     11  C   UNL     1      -2.294   2.400  22.990  1.00  0.00     0.021 A 
BRANCH   3  12
ATOM     12  O   UNL     1       2.662   2.678  22.548  1.00  0.00    -0.505 OA
ATOM     13  H   UNL     1       2.164   3.513  22.564  1.00  0.00     0.293 HD
ENDBRANCH   3  12
ENDBRANCH   1   2
BRANCH   1  14
ATOM     14  N   UNL     1       4.495   1.322  23.219  1.00  0.00    -0.345 N 
ATOM     15  C   UNL     1       5.870   1.359  23.331  1.00  0.00     0.220 C 
ATOM     16  H   UNL     1       3.969   2.173  23.396  1.00  0.00     0.164 HD
ATOM     17  O   UNL     1       6.627   0.402  23.192  1.00  0.00    -0.275 OA
BRANCH  15  18
ATOM     18  C   UNL     1       6.356   2.762  23.651  1.00  0.00     0.096 C 
ATOM     19  C   UNL     1       7.842   2.810  23.952  1.00  0.00     0.014 C 
ENDBRANCH  15  18
ENDBRANCH   1  14
BRANCH   1  20
ATOM     20  C   UNL     1       4.209  -1.088  23.765  1.00  0.00    -0.021 A 
ATOM     21  C   UNL     1       4.742  -0.845  25.012  1.00  0.00     0.008 A 
ATOM     22  C   UNL     1       4.064  -2.359  23.256  1.00  0.00     0.008 A 
ATOM     23  C   UNL     1       5.151  -1.929  25.789  1.00  0.00     0.026 A 
ATOM     24  C   UNL     1       4.472  -3.443  24.033  1.00  0.00     0.026 A 
ATOM     25  C   UNL     1       5.016  -3.228  25.300  1.00  0.00     0.036 A 
BRANCH  25  26
ATOM     26  N   UNL     1       5.428  -4.323  26.086  1.00  0.00    -0.378 N 
ATOM     27  C   UNL     1       6.830  -4.515  26.400  1.00  0.00     0.143 C 
ATOM     28  C   UNL     1       4.454  -5.264  26.602  1.00  0.00     0.143 C 
ENDBRANCH  25  26
ENDBRANCH   1  20
TORSDOF 6
ENDMDL
MODEL 6
REMARK VINA RESULT:    -7.366      3.789      5.752
REMARK INTER + INTRA:         -10.750
REMARK INTER:                  -9.156
REMARK INTRA:                  -1.594
REMARK CONF_INDEPENDENT:        1.790
REMARK UNBOUND:                 1.594
REMARK SMILES CCC(=O)NC(c1ccc(N(C)C)cc1)c1ccc2cccnc2c1O
REMARK SMILES IDX 6 1 16 2 25 3 24 4 17 5 23 6 19 7 18 8 22 9 20 10 21 11
REMARK SMILES IDX 26 12 5 14 3 15 4 17 2 18 1 19 7 20 8 21 15 22 9 23 14 24
REMARK SMILES IDX 10 25 11 26 12 27 13 28
REMARK H PARENT 26 13 5 16
REMARK Flexibility Score: inf
ROOT
ATOM      1  C   UNL     1      -1.870   2.013  23.737  1.00  0.00     0.146 C 
ENDROOT
BRANCH   1   2
ATOM      2  C   UNL     1      -0.633   1.200  23.534  1.00  0.00     0.023 A 
ATOM      3  C   UNL     1      -0.678  -0.009  22.838  1.00  0.00     0.147 A 
ATOM      4  C   UNL     1       0.464  -0.781  22.638  1.00  0.00     0.112 A 
ATOM      5  C   UNL     1       0.572   1.661  24.050  1.00  0.00     0.011 A 
ATOM      6  N   UNL     1       0.385  -1.942  21.961  1.00  0.00    -0.252 NA
ATOM      7  C   UNL     1       1.684  -0.306  23.164  1.00  0.00     0.004 A 
ATOM      8  C   UNL     1       1.729   0.911  23.866  1.00  0.00     0.011 A 
ATOM      9  C   UNL     1       1.518  -2.660  21.790  1.00  0.00     0.112 A 
ATOM     10  C   UNL     1       2.834  -1.082  22.963  1.00  0.00     0.012 A 
ATOM     11  C   UNL     1       2.756  -2.279  22.267  1.00  0.00     0.021 A 
BRANCH   3  12
ATOM     12  O   UNL     1      -1.876  -0.445  22.338  1.00  0.00    -0.505 OA
ATOM     13  H   UNL     1      -1.710  -1.226  21.784  1.00  0.00     0.293 HD
ENDBRANCH   3  12
ENDBRANCH   1   2
BRANCH   1  14
ATOM     14  N   UNL     1      -1.643   2.994  24.791  1.00  0.00    -0.345 N 
ATOM     15  C   UNL     1      -0.862   4.117  24.609  1.00  0.00     0.220 C 
ATOM     16  H   UNL     1      -2.045   2.823  25.709  1.00  0.00     0.164 HD
ATOM     17  O   UNL     1      -0.279   4.425  23.573  1.00  0.00    -0.275 OA
BRANCH  15  18
ATOM     18  C   UNL     1      -0.808   4.957  25.873  1.00  0.00     0.096 C 
ATOM     19  C   UNL     1      -0.072   4.263  27.004  1.00  0.00     0.014 C 
ENDBRANCH  15  18
ENDBRANCH   1  14
BRANCH   1  20
ATOM     20  C   UNL     1      -2.407   2.637  22.451  1.00  0.00    -0.021 A 
ATOM     21  C   UNL     1      -1.582   2.696  21.350  1.00  0.00     0.008 A 
ATOM     22  C   UNL     1      -3.697   3.119  22.438  1.00  0.00     0.008 A 
ATOM     23  C   UNL     1      -2.072   3.267  20.175  1.00  0.00     0.026 A 
ATOM     24  C   UNL     1      -4.187   3.689  21.264  1.00  0.00     0.026 A 
ATOM     25  C   UNL     1      -3.375   3.763  20.132  1.00  0.00     0.036 A 
BRANCH  25  26
ATOM     26  N   UNL     1      -3.870   4.339  18.944  1.00  0.00    -0.378 N 
ATOM     27  C   UNL     1      -5.232   4.084  18.517  1.00  0.00     0.143 C 
ATOM     28  C   UNL     1      -3.029   5.205  18.143  1.00  0.00     0.143 C 
ENDBRANCH  25  26
ENDBRANCH   1  20
TORSDOF 6
ENDMDL
MODEL 7
REMARK VINA RESULT:    -7.307      3.137      5.587
REMARK INTER + INTRA:         -10.944
REMARK INTER:                  -9.097
REMARK INTRA:                  -1.848
REMARK CONF_INDEPENDENT:        1.790
REMARK UNBOUND:                 1.848
REMARK SMILES CCC(=O)NC(c1ccc(N(C)C)cc1)c1ccc2cccnc2c1O
REMARK SMILES IDX 6 1 16 2 25 3 24 4 17 5 23 6 19 7 18 8 22 9 20 10 21 11
REMARK SMILES IDX 26 12 5 14 3 15 4 17 2 18 1 19 7 20 8 21 15 22 9 23 14 24
REMARK SMILES IDX 10 25 11 26 12 27 13 28
REMARK H PARENT 26 13 5 16
REMARK Flexibility Score: inf
ROOT
ATOM      1  C   UNL     1      -1.663   1.880  23.515  1.00  0.00     0.146 C 
ENDROOT
BRANCH   1   2
ATOM      2  C   UNL     1      -0.648   0.833  23.190  1.00  0.00     0.023 A 
ATOM      3  C   UNL     1       0.707   1.046  23.451  1.00  0.00     0.147 A 
ATOM      4  C   UNL     1       1.668   0.082  23.155  1.00  0.00     0.112 A 
ATOM      5  C   UNL     1      -1.068  -0.362  22.620  1.00  0.00     0.011 A 
ATOM      6  N   UNL     1       2.967   0.319  23.421  1.00  0.00    -0.252 NA
ATOM      7  C   UNL     1       1.235  -1.130  22.577  1.00  0.00     0.004 A 
ATOM      8  C   UNL     1      -0.129  -1.343  22.313  1.00  0.00     0.011 A 
ATOM      9  C   UNL     1       3.867  -0.644  23.117  1.00  0.00     0.112 A 
ATOM     10  C   UNL     1       2.201  -2.100  22.279  1.00  0.00     0.012 A 
ATOM     11  C   UNL     1       3.540  -1.859  22.550  1.00  0.00     0.021 A 
BRANCH   3  12
ATOM     12  O   UNL     1       1.099   2.231  24.013  1.00  0.00    -0.505 OA
ATOM     13  H   UNL     1       2.063   2.206  24.139  1.00  0.00     0.293 HD
ENDBRANCH   3  12
ENDBRANCH   1   2
BRANCH   1  14
ATOM     14  N   UNL     1      -1.081   2.861  24.422  1.00  0.00    -0.345 N 
ATOM     15  C   UNL     1      -1.620   4.118  24.607  1.00  0.00     0.220 C 
ATOM     16  H   UNL     1      -0.220   2.624  24.908  1.00  0.00     0.164 HD
ATOM     17  O   UNL     1      -2.625   4.556  24.052  1.00  0.00    -0.275 OA
BRANCH  15  18
ATOM     18  C   UNL     1      -0.808   4.921  25.608  1.00  0.00     0.096 C 
ATOM     19  C   UNL     1      -0.426   4.111  26.833  1.00  0.00     0.014 C 
ENDBRANCH  15  18
ENDBRANCH   1  14
BRANCH   1  20
ATOM     20  C   UNL     1      -2.299   2.516  22.282  1.00  0.00    -0.021 A 
ATOM     21  C   UNL     1      -3.670   2.482  22.152  1.00  0.00     0.008 A 
ATOM     22  C   UNL     1      -1.480   3.102  21.342  1.00  0.00     0.008 A 
ATOM     23  C   UNL     1      -4.251   3.063  21.025  1.00  0.00     0.026 A 
ATOM     24  C   UNL     1      -2.061   3.683  20.216  1.00  0.00     0.026 A 
ATOM     25  C   UNL     1      -3.447   3.664  20.056  1.00  0.00     0.036 A 
BRANCH  25  26
ATOM     26  N   UNL     1      -4.035   4.252  18.918  1.00  0.00    -0.378 N 
ATOM     27  C   UNL     1      -5.380   3.889  18.517  1.00  0.00     0.143 C 
ATOM     28  C   UNL     1      -3.308   5.236  18.142  1.00  0.00     0.143 C 
ENDBRANCH  25  26
ENDBRANCH   1  20
TORSDOF 6
ENDMDL
MODEL 8
REMARK VINA RESULT:    -7.283      3.393      7.978
REMARK INTER + INTRA:         -10.552
REMARK INTER:                  -9.073
REMARK INTRA:                  -1.479
REMARK CONF_INDEPENDENT:        1.790
REMARK UNBOUND:                 1.479
REMARK SMILES CCC(=O)NC(c1ccc(N(C)C)cc1)c1ccc2cccnc2c1O
REMARK SMILES IDX 6 1 16 2 25 3 24 4 17 5 23 6 19 7 18 8 22 9 20 10 21 11
REMARK SMILES IDX 26 12 5 14 3 15 4 17 2 18 1 19 7 20 8 21 15 22 9 23 14 24
REMARK SMILES IDX 10 25 11 26 12 27 13 28
REMARK H PARENT 26 13 5 16
REMARK Flexibility Score: inf
ROOT
ATOM      1  C   UNL     1       1.103   0.803  23.428  1.00  0.00     0.146 C 
ENDROOT
BRANCH   1   2
ATOM      2  C   UNL     1       0.181   1.954  23.196  1.00  0.00     0.023 A 
ATOM      3  C   UNL     1      -0.561   2.050  22.017  1.00  0.00     0.147 A 
ATOM      4  C   UNL     1      -1.426   3.116  21.783  1.00  0.00     0.112 A 
ATOM      5  C   UNL     1       0.067   2.938  24.171  1.00  0.00     0.011 A 
ATOM      6  N   UNL     1      -2.128   3.177  20.635  1.00  0.00    -0.252 NA
ATOM      7  C   UNL     1      -1.537   4.111  22.777  1.00  0.00     0.004 A 
ATOM      8  C   UNL     1      -0.790   4.014  23.964  1.00  0.00     0.011 A 
ATOM      9  C   UNL     1      -2.957   4.230  20.448  1.00  0.00     0.112 A 
ATOM     10  C   UNL     1      -2.408   5.183  22.543  1.00  0.00     0.012 A 
ATOM     11  C   UNL     1      -3.131   5.250  21.361  1.00  0.00     0.021 A 
BRANCH   3  12
ATOM     12  O   UNL     1      -0.434   1.070  21.069  1.00  0.00    -0.505 OA
ATOM     13  H   UNL     1      -0.742   1.426  20.218  1.00  0.00     0.293 HD
ENDBRANCH   3  12
ENDBRANCH   1   2
BRANCH   1  14
ATOM     14  N   UNL     1       0.671  -0.339  22.632  1.00  0.00    -0.345 N 
ATOM     15  C   UNL     1      -0.441  -1.093  22.950  1.00  0.00     0.220 C 
ATOM     16  H   UNL     1       1.234  -0.615  21.832  1.00  0.00     0.164 HD
ATOM     17  O   UNL     1      -1.183  -0.905  23.911  1.00  0.00    -0.275 OA
BRANCH  15  18
ATOM     18  C   UNL     1      -0.650  -2.211  21.946  1.00  0.00     0.096 C 
ATOM     19  C   UNL     1       0.437  -2.257  20.888  1.00  0.00     0.014 C 
ENDBRANCH  15  18
ENDBRANCH   1  14
BRANCH   1  20
ATOM     20  C   UNL     1       2.575   1.149  23.217  1.00  0.00    -0.021 A 
ATOM     21  C   UNL     1       2.924   1.923  22.133  1.00  0.00     0.008 A 
ATOM     22  C   UNL     1       3.502   0.676  24.119  1.00  0.00     0.008 A 
ATOM     23  C   UNL     1       4.269   2.239  21.939  1.00  0.00     0.026 A 
ATOM     24  C   UNL     1       4.847   0.992  23.926  1.00  0.00     0.026 A 
ATOM     25  C   UNL     1       5.231   1.774  22.836  1.00  0.00     0.036 A 
BRANCH  25  26
ATOM     26  N   UNL     1       6.590   2.095  22.641  1.00  0.00    -0.378 N 
ATOM     27  C   UNL     1       7.272   2.986  23.558  1.00  0.00     0.143 C 
ATOM     28  C   UNL     1       7.325   1.526  21.530  1.00  0.00     0.143 C 
ENDBRANCH  25  26
ENDBRANCH   1  20
TORSDOF 6
ENDMDL
MODEL 9
REMARK VINA RESULT:    -6.880      3.392      8.184
REMARK INTER + INTRA:         -10.140
REMARK INTER:                  -8.670
REMARK INTRA:                  -1.471
REMARK CONF_INDEPENDENT:        1.790
REMARK UNBOUND:                 1.471
REMARK SMILES CCC(=O)NC(c1ccc(N(C)C)cc1)c1ccc2cccnc2c1O
REMARK SMILES IDX 6 1 16 2 25 3 24 4 17 5 23 6 19 7 18 8 22 9 20 10 21 11
REMARK SMILES IDX 26 12 5 14 3 15 4 17 2 18 1 19 7 20 8 21 15 22 9 23 14 24
REMARK SMILES IDX 10 25 11 26 12 27 13 28
REMARK H PARENT 26 13 5 16
REMARK Flexibility Score: inf
ROOT
ATOM      1  C   UNL     1       0.504   1.004  23.276  1.00  0.00     0.146 C 
ENDROOT
BRANCH   1   2
ATOM      2  C   UNL     1      -0.349   1.956  22.504  1.00  0.00     0.023 A 
ATOM      3  C   UNL     1      -1.117   2.921  23.159  1.00  0.00     0.147 A 
ATOM      4  C   UNL     1      -1.919   3.817  22.457  1.00  0.00     0.112 A 
ATOM      5  C   UNL     1      -0.373   1.871  21.117  1.00  0.00     0.011 A 
ATOM      6  N   UNL     1      -2.646   4.735  23.119  1.00  0.00    -0.252 NA
ATOM      7  C   UNL     1      -1.938   3.725  21.049  1.00  0.00     0.004 A 
ATOM      8  C   UNL     1      -1.165   2.754  20.389  1.00  0.00     0.011 A 
ATOM      9  C   UNL     1      -3.412   5.587  22.398  1.00  0.00     0.112 A 
ATOM     10  C   UNL     1      -2.744   4.627  20.341  1.00  0.00     0.012 A 
ATOM     11  C   UNL     1      -3.496   5.575  21.021  1.00  0.00     0.021 A 
BRANCH   3  12
ATOM     12  O   UNL     1      -1.079   2.986  24.526  1.00  0.00    -0.505 OA
ATOM     13  H   UNL     1      -1.660   3.710  24.814  1.00  0.00     0.293 HD
ENDBRANCH   3  12
ENDBRANCH   1   2
BRANCH   1  14
ATOM     14  N   UNL     1       0.162  -0.366  22.913  1.00  0.00    -0.345 N 
ATOM     15  C   UNL     1      -1.125  -0.756  22.605  1.00  0.00     0.220 C 
ATOM     16  H   UNL     1       0.895  -1.070  22.926  1.00  0.00     0.164 HD
ATOM     17  O   UNL     1      -2.113  -0.026  22.597  1.00  0.00    -0.275 OA
BRANCH  15  18
ATOM     18  C   UNL     1      -1.183  -2.235  22.264  1.00  0.00     0.096 C 
ATOM     19  C   UNL     1       0.118  -2.748  21.675  1.00  0.00     0.014 C 
ENDBRANCH  15  18
ENDBRANCH   1  14
BRANCH   1  20
ATOM     20  C   UNL     1       1.999   1.292  23.159  1.00  0.00    -0.021 A 
ATOM     21  C   UNL     1       2.884   0.487  23.841  1.00  0.00     0.008 A 
ATOM     22  C   UNL     1       2.410   2.347  22.375  1.00  0.00     0.008 A 
ATOM     23  C   UNL     1       4.249   0.751  23.735  1.00  0.00     0.026 A 
ATOM     24  C   UNL     1       3.775   2.610  22.268  1.00  0.00     0.026 A 
ATOM     25  C   UNL     1       4.696   1.812  22.948  1.00  0.00     0.036 A 
BRANCH  25  26
ATOM     26  N   UNL     1       6.076   2.078  22.840  1.00  0.00    -0.378 N 
ATOM     27  C   UNL     1       6.847   1.520  21.746  1.00  0.00     0.143 C 
ATOM     28  C   UNL     1       6.739   2.923  23.813  1.00  0.00     0.143 C 
ENDBRANCH  25  26
ENDBRANCH   1  20
TORSDOF 6
ENDMDL
