
     RDKit          3D

 49 51  0  0  0  0  0  0  0  0999 V2000
    7.7840    1.9310   21.4120 C   0  0  0  0  0  0  0  0  0  0  0  0
    6.4560    2.5860   21.7430 C   0  0  0  0  0  0  0  0  0  0  0  0
    5.7550    1.9260   22.9170 C   0  0  0  0  0  0  0  0  0  0  0  0
    6.3310    1.6240   23.9590 O   0  0  0  0  0  0  0  0  0  0  0  0
    4.4180    1.7170   22.6450 N   0  0  0  0  0  0  0  0  0  0  0  0
    3.5080    1.0960   23.5990 C   0  0  0  0  0  0  0  0  0  0  0  0
    2.0390    1.3620   23.2780 C   0  0  0  0  0  0  0  0  0  0  0  0
    1.7330    2.2360   22.2580 C   0  0  0  0  0  0  0  0  0  0  0  0
    0.3910    2.4800   21.9650 C   0  0  0  0  0  0  0  0  0  0  0  0
   -0.6100    1.8430   22.6980 C   0  0  0  0  0  0  0  0  0  0  0  0
   -1.9660    2.0880   22.4000 N   0  0  0  0  0  0  0  0  0  0  0  0
   -2.9900    1.8630   23.4010 C   0  0  0  0  0  0  0  0  0  0  0  0
   -2.3520    2.5830   21.0940 C   0  0  0  0  0  0  0  0  0  0  0  0
   -0.2690    0.9620   23.7250 C   0  0  0  0  0  0  0  0  0  0  0  0
    1.0720    0.7190   24.0180 C   0  0  0  0  0  0  0  0  0  0  0  0
    3.8360   -0.3550   23.7330 C   0  0  0  0  0  0  0  0  0  0  0  0
    3.2970   -1.2570   22.8230 C   0  0  0  0  0  0  0  0  0  0  0  0
    3.5970   -2.6110   22.9400 C   0  0  0  0  0  0  0  0  0  0  0  0
    4.4400   -3.0670   23.9690 C   0  0  0  0  0  0  0  0  0  0  0  0
    4.7580   -4.4250   24.1100 C   0  0  0  0  0  0  0  0  0  0  0  0
    5.5920   -4.8440   25.1360 C   0  0  0  0  0  0  0  0  0  0  0  0
    6.0820   -3.8790   25.9930 C   0  0  0  0  0  0  0  0  0  0  0  0
    5.8000   -2.5600   25.8930 N   0  0  0  0  0  0  0  0  0  0  0  0
    4.9900   -2.1570   24.8960 C   0  0  0  0  0  0  0  0  0  0  0  0
    4.6730   -0.8080   24.7550 C   0  0  0  0  0  0  0  0  0  0  0  0
    5.1920    0.0980   25.6400 O   0  0  0  0  0  0  0  0  0  0  0  0
    8.3078    1.6726   22.3441 H   0  0  0  0  0  0  0  0  0  0  0  0
    7.6062    1.0173   20.8260 H   0  0  0  0  0  0  0  0  0  0  0  0
    8.4008    2.6282   20.8260 H   0  0  0  0  0  0  0  0  0  0  0  0
    6.6363    3.6428   21.9894 H   0  0  0  0  0  0  0  0  0  0  0  0
    5.8040    2.4795   20.8635 H   0  0  0  0  0  0  0  0  0  0  0  0
    4.0430    2.0470   21.7600 H   0  0  0  0  0  0  0  0  0  0  0  0
    3.6576    1.5666   24.5819 H   0  0  0  0  0  0  0  0  0  0  0  0
    2.5311    2.7317   21.6859 H   0  0  0  0  0  0  0  0  0  0  0  0
    0.1224    3.1749   21.1557 H   0  0  0  0  0  0  0  0  0  0  0  0
   -2.5495    1.9598   24.4043 H   0  0  0  0  0  0  0  0  0  0  0  0
   -3.7915    2.6065   23.2792 H   0  0  0  0  0  0  0  0  0  0  0  0
   -3.4060    0.8520   23.2792 H   0  0  0  0  0  0  0  0  0  0  0  0
   -3.0245    3.4454   21.2128 H   0  0  0  0  0  0  0  0  0  0  0  0
   -1.4540    2.8920   20.5389 H   0  0  0  0  0  0  0  0  0  0  0  0
   -2.8705    1.7874   20.5389 H   0  0  0  0  0  0  0  0  0  0  0  0
   -1.0583    0.4593   24.3033 H   0  0  0  0  0  0  0  0  0  0  0  0
    1.3525    0.0265   24.8253 H   0  0  0  0  0  0  0  0  0  0  0  0
    2.6382   -0.9032   22.0163 H   0  0  0  0  0  0  0  0  0  0  0  0
    3.1720   -3.3289   22.2231 H   0  0  0  0  0  0  0  0  0  0  0  0
    4.3447   -5.1608   23.4045 H   0  0  0  0  0  0  0  0  0  0  0  0
    5.8531   -5.9051   25.2621 H   0  0  0  0  0  0  0  0  0  0  0  0
    6.7441   -4.2035   26.8093 H   0  0  0  0  0  0  0  0  0  0  0  0
    5.5670   -0.3910   26.3930 H   0  0  0  0  0  0  0  0  0  0  0  0
  1  2  1  0
  2  3  1  0
  3  4  2  0
  3  5  1  0
  5  6  1  0
  6  7  1  0
  7  8  2  0
  8  9  1  0
  9 10  2  0
 10 11  1  0
 11 12  1  0
 11 13  1  0
 10 14  1  0
 14 15  2  0
  6 16  1  0
 16 17  2  0
 17 18  1  0
 18 19  2  0
 19 20  1  0
 20 21  2  0
 21 22  1  0
 22 23  2  0
 23 24  1  0
 24 25  2  0
 25 26  1  0
 15  7  1  0
 25 16  1  0
 24 19  1  0
  1 27  1  0
  1 28  1  0
  1 29  1  0
  2 30  1  0
  2 31  1  0
  5 32  1  0
  6 33  1  0
  8 34  1  0
  9 35  1  0
 12 36  1  0
 12 37  1  0
 12 38  1  0
 13 39  1  0
 13 40  1  0
 13 41  1  0
 14 42  1  0
 15 43  1  0
 17 44  1  0
 18 45  1  0
 20 46  1  0
 21 47  1  0
 22 48  1  0
 26 49  1  0
M  END
>  <meeko>  (1) 
{"free_energy": -8.146, "intermolecular_energy": -9.936, "internal_energy": -1.529}

$$$$

     RDKit          3D

 49 51  0  0  0  0  0  0  0  0999 V2000
   -0.4420   -2.6140   21.5180 C   0  0  0  0  0  0  0  0  0  0  0  0
    1.0660   -2.6390   21.3500 C   0  0  0  0  0  0  0  0  0  0  0  0
    1.7710   -1.6560   22.2670 C   0  0  0  0  0  0  0  0  0  0  0  0
    2.9080   -1.8350   22.6960 O   0  0  0  0  0  0  0  0  0  0  0  0
    0.9690   -0.5670   22.5410 N   0  0  0  0  0  0  0  0  0  0  0  0
    1.3970    0.5310   23.3990 C   0  0  0  0  0  0  0  0  0  0  0  0
    2.8460    0.9470   23.1520 C   0  0  0  0  0  0  0  0  0  0  0  0
    3.7740    0.7340   24.1470 C   0  0  0  0  0  0  0  0  0  0  0  0
    5.0970    1.1150   23.9220 C   0  0  0  0  0  0  0  0  0  0  0  0
    5.4580    1.6970   22.7070 C   0  0  0  0  0  0  0  0  0  0  0  0
    6.7960    2.0800   22.4800 N   0  0  0  0  0  0  0  0  0  0  0  0
    7.4650    2.9860   23.3930 C   0  0  0  0  0  0  0  0  0  0  0  0
    7.5230    1.5630   21.3380 C   0  0  0  0  0  0  0  0  0  0  0  0
    4.4950    1.8990   21.7180 C   0  0  0  0  0  0  0  0  0  0  0  0
    3.1730    1.5200   21.9430 C   0  0  0  0  0  0  0  0  0  0  0  0
    0.4260    1.6600   23.2910 C   0  0  0  0  0  0  0  0  0  0  0  0
    0.8810    2.9630   23.4590 C   0  0  0  0  0  0  0  0  0  0  0  0
   -0.0170    4.0210   23.3600 C   0  0  0  0  0  0  0  0  0  0  0  0
   -1.3760    3.7790   23.0910 C   0  0  0  0  0  0  0  0  0  0  0  0
   -2.3010    4.8260   22.9870 C   0  0  0  0  0  0  0  0  0  0  0  0
   -3.6360    4.5550   22.7210 C   0  0  0  0  0  0  0  0  0  0  0  0
   -3.9990    3.2320   22.5690 C   0  0  0  0  0  0  0  0  0  0  0  0
   -3.1380    2.1930   22.6630 N   0  0  0  0  0  0  0  0  0  0  0  0
   -1.8440    2.4600   22.9200 C   0  0  0  0  0  0  0  0  0  0  0  0
   -0.9240    1.4200   23.0240 C   0  0  0  0  0  0  0  0  0  0  0  0
   -1.3500    0.1290   22.8630 O   0  0  0  0  0  0  0  0  0  0  0  0
   -0.6916   -2.6099   22.5893 H   0  0  0  0  0  0  0  0  0  0  0  0
   -0.8489   -1.7090   21.0432 H   0  0  0  0  0  0  0  0  0  0  0  0
   -0.8787   -3.5050   21.0432 H   0  0  0  0  0  0  0  0  0  0  0  0
    1.4289   -3.6529   21.5744 H   0  0  0  0  0  0  0  0  0  0  0  0
    1.2910   -2.3483   20.3132 H   0  0  0  0  0  0  0  0  0  0  0  0
    0.0580   -0.5080   22.0950 H   0  0  0  0  0  0  0  0  0  0  0  0
    1.3912    0.1819   24.4421 H   0  0  0  0  0  0  0  0  0  0  0  0
    3.4778    0.2725   25.1005 H   0  0  0  0  0  0  0  0  0  0  0  0
    5.8554    0.9564   24.7028 H   0  0  0  0  0  0  0  0  0  0  0  0
    7.2462    2.6897   24.4295 H   0  0  0  0  0  0  0  0  0  0  0  0
    8.5507    2.9443   23.2211 H   0  0  0  0  0  0  0  0  0  0  0  0
    7.1057    4.0113   23.2211 H   0  0  0  0  0  0  0  0  0  0  0  0
    8.3730    0.9585   21.6875 H   0  0  0  0  0  0  0  0  0  0  0  0
    6.8534    0.9371   20.7298 H   0  0  0  0  0  0  0  0  0  0  0  0
    7.8944    2.4009   20.7298 H   0  0  0  0  0  0  0  0  0  0  0  0
    4.7795    2.3579   20.7596 H   0  0  0  0  0  0  0  0  0  0  0  0
    2.4057    1.6754   21.1702 H   0  0  0  0  0  0  0  0  0  0  0  0
    1.9434    3.1560   23.6687 H   0  0  0  0  0  0  0  0  0  0  0  0
    0.3383    5.0535   23.4930 H   0  0  0  0  0  0  0  0  0  0  0  0
   -1.9681    5.8664   23.1166 H   0  0  0  0  0  0  0  0  0  0  0  0
   -4.3766    5.3638   22.6346 H   0  0  0  0  0  0  0  0  0  0  0  0
   -5.0552    3.0085   22.3581 H   0  0  0  0  0  0  0  0  0  0  0  0
   -2.2980    0.1450   22.6480 H   0  0  0  0  0  0  0  0  0  0  0  0
  1  2  1  0
  2  3  1  0
  3  4  2  0
  3  5  1  0
  5  6  1  0
  6  7  1  0
  7  8  2  0
  8  9  1  0
  9 10  2  0
 10 11  1  0
 11 12  1  0
 11 13  1  0
 10 14  1  0
 14 15  2  0
  6 16  1  0
 16 17  2  0
 17 18  1  0
 18 19  2  0
 19 20  1  0
 20 21  2  0
 21 22  1  0
 22 23  2  0
 23 24  1  0
 24 25  2  0
 25 26  1  0
 15  7  1  0
 25 16  1  0
 24 19  1  0
  1 27  1  0
  1 28  1  0
  1 29  1  0
  2 30  1  0
  2 31  1  0
  5 32  1  0
  6 33  1  0
  8 34  1  0
  9 35  1  0
 12 36  1  0
 12 37  1  0
 12 38  1  0
 13 39  1  0
 13 40  1  0
 13 41  1  0
 14 42  1  0
 15 43  1  0
 17 44  1  0
 18 45  1  0
 20 46  1  0
 21 47  1  0
 22 48  1  0
 26 49  1  0
M  END
>  <meeko>  (2) 
{"free_energy": -7.718, "intermolecular_energy": -9.508, "internal_energy": -2.064}

$$$$

     RDKit          3D

 49 51  0  0  0  0  0  0  0  0999 V2000
    5.8160   -2.9250   26.4290 C   0  0  0  0  0  0  0  0  0  0  0  0
    4.4420   -3.2010   25.8470 C   0  0  0  0  0  0  0  0  0  0  0  0
    4.2890   -2.6700   24.4330 C   0  0  0  0  0  0  0  0  0  0  0  0
    4.8170   -3.1960   23.4570 O   0  0  0  0  0  0  0  0  0  0  0  0
    3.4970   -1.5390   24.4090 N   0  0  0  0  0  0  0  0  0  0  0  0
    3.1870   -0.8210   23.1790 C   0  0  0  0  0  0  0  0  0  0  0  0
    1.8530   -0.0800   23.2460 C   0  0  0  0  0  0  0  0  0  0  0  0
    0.7070   -0.7480   22.8750 C   0  0  0  0  0  0  0  0  0  0  0  0
   -0.5120   -0.0710   22.9350 C   0  0  0  0  0  0  0  0  0  0  0  0
   -0.5530    1.2560   23.3650 C   0  0  0  0  0  0  0  0  0  0  0  0
   -1.7850    1.9390   23.4270 N   0  0  0  0  0  0  0  0  0  0  0  0
   -1.9330    3.1090   24.2690 C   0  0  0  0  0  0  0  0  0  0  0  0
   -2.9130    1.4880   22.6370 C   0  0  0  0  0  0  0  0  0  0  0  0
    0.6260    1.9050   23.7340 C   0  0  0  0  0  0  0  0  0  0  0  0
    1.8440    1.2290   23.6740 C   0  0  0  0  0  0  0  0  0  0  0  0
    4.3380    0.0550   22.8060 C   0  0  0  0  0  0  0  0  0  0  0  0
    4.5490    0.3610   21.4670 C   0  0  0  0  0  0  0  0  0  0  0  0
    5.6180    1.1770   21.1100 C   0  0  0  0  0  0  0  0  0  0  0  0
    6.4810    1.6900   22.0940 C   0  0  0  0  0  0  0  0  0  0  0  0
    7.5660    2.5130   21.7630 C   0  0  0  0  0  0  0  0  0  0  0  0
    8.3990    3.0040   22.7570 C   0  0  0  0  0  0  0  0  0  0  0  0
    8.1150    2.6490   24.0600 C   0  0  0  0  0  0  0  0  0  0  0  0
    7.0800    1.8580   24.4230 N   0  0  0  0  0  0  0  0  0  0  0  0
    6.2720    1.3830   23.4560 C   0  0  0  0  0  0  0  0  0  0  0  0
    5.1940    0.5650   23.7840 C   0  0  0  0  0  0  0  0  0  0  0  0
    4.9680    0.2510   25.0970 O   0  0  0  0  0  0  0  0  0  0  0  0
    5.7580   -2.9366   27.5274 H   0  0  0  0  0  0  0  0  0  0  0  0
    6.5199   -3.6997   26.0907 H   0  0  0  0  0  0  0  0  0  0  0  0
    6.1661   -1.9386   26.0907 H   0  0  0  0  0  0  0  0  0  0  0  0
    4.2767   -4.2884   25.8347 H   0  0  0  0  0  0  0  0  0  0  0  0
    3.7033   -2.6852   26.4781 H   0  0  0  0  0  0  0  0  0  0  0  0
    3.0800   -1.2180   25.2780 H   0  0  0  0  0  0  0  0  0  0  0  0
    3.0478   -1.5543   22.3709 H   0  0  0  0  0  0  0  0  0  0  0  0
    0.7517   -1.7942   22.5381 H   0  0  0  0  0  0  0  0  0  0  0  0
   -1.4406   -0.5835   22.6433 H   0  0  0  0  0  0  0  0  0  0  0  0
   -1.8948    2.8072   25.3261 H   0  0  0  0  0  0  0  0  0  0  0  0
   -1.1172    3.8167   24.0600 H   0  0  0  0  0  0  0  0  0  0  0  0
   -2.8993    3.5913   24.0600 H   0  0  0  0  0  0  0  0  0  0  0  0
   -3.7234    1.1640   23.3065 H   0  0  0  0  0  0  0  0  0  0  0  0
   -3.2694    2.3128   22.0024 H   0  0  0  0  0  0  0  0  0  0  0  0
   -2.6025    0.6449   22.0024 H   0  0  0  0  0  0  0  0  0  0  0  0
    0.5944    2.9511   24.0726 H   0  0  0  0  0  0  0  0  0  0  0  0
    2.7791    1.7312   23.9628 H   0  0  0  0  0  0  0  0  0  0  0  0
    3.8756   -0.0391   20.6947 H   0  0  0  0  0  0  0  0  0  0  0  0
    5.7889    1.4222   20.0514 H   0  0  0  0  0  0  0  0  0  0  0  0
    7.7575    2.7704   20.7108 H   0  0  0  0  0  0  0  0  0  0  0  0
    9.2543    3.6523   22.5159 H   0  0  0  0  0  0  0  0  0  0  0  0
    8.7722    3.0339   24.8537 H   0  0  0  0  0  0  0  0  0  0  0  0
    5.6100    0.7360   25.6420 H   0  0  0  0  0  0  0  0  0  0  0  0
  1  2  1  0
  2  3  1  0
  3  4  2  0
  3  5  1  0
  5  6  1  0
  6  7  1  0
  7  8  2  0
  8  9  1  0
  9 10  2  0
 10 11  1  0
 11 12  1  0
 11 13  1  0
 10 14  1  0
 14 15  2  0
  6 16  1  0
 16 17  2  0
 17 18  1  0
 18 19  2  0
 19 20  1  0
 20 21  2  0
 21 22  1  0
 22 23  2  0
 23 24  1  0
 24 25  2  0
 25 26  1  0
 15  7  1  0
 25 16  1  0
 24 19  1  0
  1 27  1  0
  1 28  1  0
  1 29  1  0
  2 30  1  0
  2 31  1  0
  5 32  1  0
  6 33  1  0
  8 34  1  0
  9 35  1  0
 12 36  1  0
 12 37  1  0
 12 38  1  0
 13 39  1  0
 13 40  1  0
 13 41  1  0
 14 42  1  0
 15 43  1  0
 17 44  1  0
 18 45  1  0
 20 46  1  0
 21 47  1  0
 22 48  1  0
 26 49  1  0
M  END
>  <meeko>  (3) 
{"free_energy": -7.646, "intermolecular_energy": -9.436, "internal_energy": -1.862}

$$$$

     RDKit          3D

 49 51  0  0  0  0  0  0  0  0999 V2000
    4.8130   -4.1340   23.8770 C   0  0  0  0  0  0  0  0  0  0  0  0
    4.3060   -2.9750   24.7150 C   0  0  0  0  0  0  0  0  0  0  0  0
    4.5440   -1.6290   24.0550 C   0  0  0  0  0  0  0  0  0  0  0  0
    5.6170   -1.0330   24.1140 O   0  0  0  0  0  0  0  0  0  0  0  0
    3.4120   -1.1870   23.4020 N   0  0  0  0  0  0  0  0  0  0  0  0
    3.3600    0.0810   22.6850 C   0  0  0  0  0  0  0  0  0  0  0  0
    2.0960    0.8820   22.9860 C   0  0  0  0  0  0  0  0  0  0  0  0
    2.0970    2.2370   22.7410 C   0  0  0  0  0  0  0  0  0  0  0  0
    0.9430    2.9700   23.0170 C   0  0  0  0  0  0  0  0  0  0  0  0
   -0.1850    2.3280   23.5300 C   0  0  0  0  0  0  0  0  0  0  0  0
   -1.3520    3.0680   23.8080 N   0  0  0  0  0  0  0  0  0  0  0  0
   -1.2720    4.3200   24.5330 C   0  0  0  0  0  0  0  0  0  0  0  0
   -2.6460    2.5940   23.3590 C   0  0  0  0  0  0  0  0  0  0  0  0
   -0.1570    0.9530   23.7670 C   0  0  0  0  0  0  0  0  0  0  0  0
    0.9980    0.2210   23.4920 C   0  0  0  0  0  0  0  0  0  0  0  0
    4.6210    0.8450   22.9240 C   0  0  0  0  0  0  0  0  0  0  0  0
    4.8250    1.4430   24.1610 C   0  0  0  0  0  0  0  0  0  0  0  0
    5.9970    2.1570   24.3930 C   0  0  0  0  0  0  0  0  0  0  0  0
    6.9710    2.2730   23.3860 C   0  0  0  0  0  0  0  0  0  0  0  0
    8.1600    2.9860   23.5920 C   0  0  0  0  0  0  0  0  0  0  0  0
    9.1010    3.0820   22.5780 C   0  0  0  0  0  0  0  0  0  0  0  0
    8.8160    2.4560   21.3820 C   0  0  0  0  0  0  0  0  0  0  0  0
    7.6820    1.7590   21.1410 N   0  0  0  0  0  0  0  0  0  0  0  0
    6.7700    1.6670   22.1280 C   0  0  0  0  0  0  0  0  0  0  0  0
    5.5880    0.9600   21.9240 C   0  0  0  0  0  0  0  0  0  0  0  0
    5.3670    0.3610   20.7120 O   0  0  0  0  0  0  0  0  0  0  0  0
    5.1650   -4.9388   24.5391 H   0  0  0  0  0  0  0  0  0  0  0  0
    3.9979   -4.5117   23.2422 H   0  0  0  0  0  0  0  0  0  0  0  0
    5.6436   -3.7917   23.2422 H   0  0  0  0  0  0  0  0  0  0  0  0
    3.2252   -3.1025   24.8753 H   0  0  0  0  0  0  0  0  0  0  0  0
    4.8609   -2.9830   25.6647 H   0  0  0  0  0  0  0  0  0  0  0  0
    2.5920   -1.7870   23.3880 H   0  0  0  0  0  0  0  0  0  0  0  0
    3.2942   -0.1301   21.6075 H   0  0  0  0  0  0  0  0  0  0  0  0
    2.9914    2.7322   22.3351 H   0  0  0  0  0  0  0  0  0  0  0  0
    0.9219    4.0539   22.8304 H   0  0  0  0  0  0  0  0  0  0  0  0
   -1.2848    4.1190   25.6144 H   0  0  0  0  0  0  0  0  0  0  0  0
   -0.3389    4.8385   24.2675 H   0  0  0  0  0  0  0  0  0  0  0  0
   -2.1315    4.9530   24.2675 H   0  0  0  0  0  0  0  0  0  0  0  0
   -3.2750    2.3636   24.2315 H   0  0  0  0  0  0  0  0  0  0  0  0
   -3.1314    3.3727   22.7524 H   0  0  0  0  0  0  0  0  0  0  0  0
   -2.5136    1.6860   22.7524 H   0  0  0  0  0  0  0  0  0  0  0  0
   -1.0460    0.4464   24.1708 H   0  0  0  0  0  0  0  0  0  0  0  0
    1.0317   -0.8631   23.6755 H   0  0  0  0  0  0  0  0  0  0  0  0
    4.0656    1.3529   24.9517 H   0  0  0  0  0  0  0  0  0  0  0  0
    6.1622    2.6336   25.3706 H   0  0  0  0  0  0  0  0  0  0  0  0
    8.3473    3.4711   24.5613 H   0  0  0  0  0  0  0  0  0  0  0  0
   10.0399    3.6367   22.7219 H   0  0  0  0  0  0  0  0  0  0  0  0
    9.5580    2.5283   20.5731 H   0  0  0  0  0  0  0  0  0  0  0  0
    4.8210    0.9580   20.1720 H   0  0  0  0  0  0  0  0  0  0  0  0
  1  2  1  0
  2  3  1  0
  3  4  2  0
  3  5  1  0
  5  6  1  0
  6  7  1  0
  7  8  2  0
  8  9  1  0
  9 10  2  0
 10 11  1  0
 11 12  1  0
 11 13  1  0
 10 14  1  0
 14 15  2  0
  6 16  1  0
 16 17  2  0
 17 18  1  0
 18 19  2  0
 19 20  1  0
 20 21  2  0
 21 22  1  0
 22 23  2  0
 23 24  1  0
 24 25  2  0
 25 26  1  0
 15  7  1  0
 25 16  1  0
 24 19  1  0
  1 27  1  0
  1 28  1  0
  1 29  1  0
  2 30  1  0
  2 31  1  0
  5 32  1  0
  6 33  1  0
  8 34  1  0
  9 35  1  0
 12 36  1  0
 12 37  1  0
 12 38  1  0
 13 39  1  0
 13 40  1  0
 13 41  1  0
 14 42  1  0
 15 43  1  0
 17 44  1  0
 18 45  1  0
 20 46  1  0
 21 47  1  0
 22 48  1  0
 26 49  1  0
M  END
>  <meeko>  (4) 
{"free_energy": -7.615, "intermolecular_energy": -9.405, "internal_energy": -0.14}

$$$$

     RDKit          3D

 49 51  0  0  0  0  0  0  0  0999 V2000
    7.8420    2.8100   23.9520 C   0  0  0  0  0  0  0  0  0  0  0  0
    6.3560    2.7620   23.6510 C   0  0  0  0  0  0  0  0  0  0  0  0
    5.8700    1.3590   23.3310 C   0  0  0  0  0  0  0  0  0  0  0  0
    6.6270    0.4020   23.1920 O   0  0  0  0  0  0  0  0  0  0  0  0
    4.4950    1.3220   23.2190 N   0  0  0  0  0  0  0  0  0  0  0  0
    3.7630    0.0990   22.9150 C   0  0  0  0  0  0  0  0  0  0  0  0
    4.2090   -1.0880   23.7650 C   0  0  0  0  0  0  0  0  0  0  0  0
    4.7420   -0.8450   25.0120 C   0  0  0  0  0  0  0  0  0  0  0  0
    5.1510   -1.9290   25.7890 C   0  0  0  0  0  0  0  0  0  0  0  0
    5.0160   -3.2280   25.3000 C   0  0  0  0  0  0  0  0  0  0  0  0
    5.4280   -4.3230   26.0860 N   0  0  0  0  0  0  0  0  0  0  0  0
    6.8300   -4.5150   26.4000 C   0  0  0  0  0  0  0  0  0  0  0  0
    4.4540   -5.2640   26.6020 C   0  0  0  0  0  0  0  0  0  0  0  0
    4.4720   -3.4430   24.0330 C   0  0  0  0  0  0  0  0  0  0  0  0
    4.0640   -2.3590   23.2560 C   0  0  0  0  0  0  0  0  0  0  0  0
    2.2940    0.3630   22.9840 C   0  0  0  0  0  0  0  0  0  0  0  0
    1.4280   -0.6930   23.2390 C   0  0  0  0  0  0  0  0  0  0  0  0
    0.0580   -0.4550   23.3060 C   0  0  0  0  0  0  0  0  0  0  0  0
   -0.4500    0.8420   23.1180 C   0  0  0  0  0  0  0  0  0  0  0  0
   -1.8240    1.1090   23.1800 C   0  0  0  0  0  0  0  0  0  0  0  0
   -2.2940    2.4000   22.9900 C   0  0  0  0  0  0  0  0  0  0  0  0
   -1.3620    3.3880   22.7420 C   0  0  0  0  0  0  0  0  0  0  0  0
   -0.0280    3.1730   22.6740 N   0  0  0  0  0  0  0  0  0  0  0  0
    0.4250    1.9190   22.8590 C   0  0  0  0  0  0  0  0  0  0  0  0
    1.7900    1.6520   22.7980 C   0  0  0  0  0  0  0  0  0  0  0  0
    2.6620    2.6780   22.5480 O   0  0  0  0  0  0  0  0  0  0  0  0
    7.9955    2.8150   25.0412 H   0  0  0  0  0  0  0  0  0  0  0  0
    8.3330    1.9272   23.5165 H   0  0  0  0  0  0  0  0  0  0  0  0
    8.2750    3.7226   23.5165 H   0  0  0  0  0  0  0  0  0  0  0  0
    5.8066    3.1336   24.5285 H   0  0  0  0  0  0  0  0  0  0  0  0
    6.1752    3.3876   22.7644 H   0  0  0  0  0  0  0  0  0  0  0  0
    3.9690    2.1730   23.3960 H   0  0  0  0  0  0  0  0  0  0  0  0
    4.0026   -0.2035   21.8849 H   0  0  0  0  0  0  0  0  0  0  0  0
    4.8431    0.1839   25.3877 H   0  0  0  0  0  0  0  0  0  0  0  0
    5.5800   -1.7591   26.7875 H   0  0  0  0  0  0  0  0  0  0  0  0
    6.9621   -4.5331   27.4919 H   0  0  0  0  0  0  0  0  0  0  0  0
    7.1741   -5.4686   25.9732 H   0  0  0  0  0  0  0  0  0  0  0  0
    7.4178   -3.6890   25.9732 H   0  0  0  0  0  0  0  0  0  0  0  0
    4.4731   -5.2455   27.7017 H   0  0  0  0  0  0  0  0  0  0  0  0
    3.4508   -4.9844   26.2480 H   0  0  0  0  0  0  0  0  0  0  0  0
    4.6988   -6.2763   26.2480 H   0  0  0  0  0  0  0  0  0  0  0  0
    4.3650   -4.4675   23.6471 H   0  0  0  0  0  0  0  0  0  0  0  0
    3.6346   -2.5165   22.2556 H   0  0  0  0  0  0  0  0  0  0  0  0
    1.8218   -1.7094   23.3868 H   0  0  0  0  0  0  0  0  0  0  0  0
   -0.6318   -1.2878   23.5075 H   0  0  0  0  0  0  0  0  0  0  0  0
   -2.5326    0.2918   23.3801 H   0  0  0  0  0  0  0  0  0  0  0  0
   -3.3691    2.6282   23.0352 H   0  0  0  0  0  0  0  0  0  0  0  0
   -1.7270    4.4145   22.5902 H   0  0  0  0  0  0  0  0  0  0  0  0
    2.1640    3.5130   22.5640 H   0  0  0  0  0  0  0  0  0  0  0  0
  1  2  1  0
  2  3  1  0
  3  4  2  0
  3  5  1  0
  5  6  1  0
  6  7  1  0
  7  8  2  0
  8  9  1  0
  9 10  2  0
 10 11  1  0
 11 12  1  0
 11 13  1  0
 10 14  1  0
 14 15  2  0
  6 16  1  0
 16 17  2  0
 17 18  1  0
 18 19  2  0
 19 20  1  0
 20 21  2  0
 21 22  1  0
 22 23  2  0
 23 24  1  0
 24 25  2  0
 25 26  1  0
 15  7  1  0
 25 16  1  0
 24 19  1  0
  1 27  1  0
  1 28  1  0
  1 29  1  0
  2 30  1  0
  2 31  1  0
  5 32  1  0
  6 33  1  0
  8 34  1  0
  9 35  1  0
 12 36  1  0
 12 37  1  0
 12 38  1  0
 13 39  1  0
 13 40  1  0
 13 41  1  0
 14 42  1  0
 15 43  1  0
 17 44  1  0
 18 45  1  0
 20 46  1  0
 21 47  1  0
 22 48  1  0
 26 49  1  0
M  END
>  <meeko>  (5) 
{"free_energy": -7.609, "intermolecular_energy": -9.399, "internal_energy": -1.753}

$$$$

     RDKit          3D

 49 51  0  0  0  0  0  0  0  0999 V2000
   -0.0720    4.2630   27.0040 C   0  0  0  0  0  0  0  0  0  0  0  0
   -0.8080    4.9570   25.8730 C   0  0  0  0  0  0  0  0  0  0  0  0
   -0.8620    4.1170   24.6090 C   0  0  0  0  0  0  0  0  0  0  0  0
   -0.2790    4.4250   23.5730 O   0  0  0  0  0  0  0  0  0  0  0  0
   -1.6430    2.9940   24.7910 N   0  0  0  0  0  0  0  0  0  0  0  0
   -1.8700    2.0130   23.7370 C   0  0  0  0  0  0  0  0  0  0  0  0
   -2.4070    2.6370   22.4510 C   0  0  0  0  0  0  0  0  0  0  0  0
   -1.5820    2.6960   21.3500 C   0  0  0  0  0  0  0  0  0  0  0  0
   -2.0720    3.2670   20.1750 C   0  0  0  0  0  0  0  0  0  0  0  0
   -3.3750    3.7630   20.1320 C   0  0  0  0  0  0  0  0  0  0  0  0
   -3.8700    4.3390   18.9440 N   0  0  0  0  0  0  0  0  0  0  0  0
   -5.2320    4.0840   18.5170 C   0  0  0  0  0  0  0  0  0  0  0  0
   -3.0290    5.2050   18.1430 C   0  0  0  0  0  0  0  0  0  0  0  0
   -4.1870    3.6890   21.2640 C   0  0  0  0  0  0  0  0  0  0  0  0
   -3.6970    3.1190   22.4380 C   0  0  0  0  0  0  0  0  0  0  0  0
   -0.6330    1.2000   23.5340 C   0  0  0  0  0  0  0  0  0  0  0  0
    0.5720    1.6610   24.0500 C   0  0  0  0  0  0  0  0  0  0  0  0
    1.7290    0.9110   23.8660 C   0  0  0  0  0  0  0  0  0  0  0  0
    1.6840   -0.3060   23.1640 C   0  0  0  0  0  0  0  0  0  0  0  0
    2.8340   -1.0820   22.9630 C   0  0  0  0  0  0  0  0  0  0  0  0
    2.7560   -2.2790   22.2670 C   0  0  0  0  0  0  0  0  0  0  0  0
    1.5180   -2.6600   21.7900 C   0  0  0  0  0  0  0  0  0  0  0  0
    0.3850   -1.9420   21.9610 N   0  0  0  0  0  0  0  0  0  0  0  0
    0.4640   -0.7810   22.6380 C   0  0  0  0  0  0  0  0  0  0  0  0
   -0.6780   -0.0090   22.8380 C   0  0  0  0  0  0  0  0  0  0  0  0
   -1.8760   -0.4450   22.3380 O   0  0  0  0  0  0  0  0  0  0  0  0
   -0.4566    4.6256   27.9687 H   0  0  0  0  0  0  0  0  0  0  0  0
   -0.2291    3.1767   26.9316 H   0  0  0  0  0  0  0  0  0  0  0  0
    1.0032    4.4836   26.9316 H   0  0  0  0  0  0  0  0  0  0  0  0
   -1.8369    5.1685   26.1997 H   0  0  0  0  0  0  0  0  0  0  0  0
   -0.2596    5.8806   25.6360 H   0  0  0  0  0  0  0  0  0  0  0  0
   -2.0450    2.8230   25.7090 H   0  0  0  0  0  0  0  0  0  0  0  0
   -2.6709    1.3318   24.0602 H   0  0  0  0  0  0  0  0  0  0  0  0
   -0.5565    2.3006   21.3960 H   0  0  0  0  0  0  0  0  0  0  0  0
   -1.4311    3.3260   19.2830 H   0  0  0  0  0  0  0  0  0  0  0  0
   -5.8766    3.9633   19.4001 H   0  0  0  0  0  0  0  0  0  0  0  0
   -5.5916    4.9304   17.9135 H   0  0  0  0  0  0  0  0  0  0  0  0
   -5.2610    3.1648   17.9135 H   0  0  0  0  0  0  0  0  0  0  0  0
   -2.4167    5.8355   18.8044 H   0  0  0  0  0  0  0  0  0  0  0  0
   -2.3716    4.5928   17.5082 H   0  0  0  0  0  0  0  0  0  0  0  0
   -3.6602    5.8442   17.5082 H   0  0  0  0  0  0  0  0  0  0  0  0
   -5.2144    4.0806   21.2302 H   0  0  0  0  0  0  0  0  0  0  0  0
   -4.3284    3.0555   23.3365 H   0  0  0  0  0  0  0  0  0  0  0  0
    0.6107    2.6127   24.6003 H   0  0  0  0  0  0  0  0  0  0  0  0
    2.6851    1.2725   24.2724 H   0  0  0  0  0  0  0  0  0  0  0  0
    3.8018   -0.7403   23.3588 H   0  0  0  0  0  0  0  0  0  0  0  0
    3.6475   -2.9016   22.1012 H   0  0  0  0  0  0  0  0  0  0  0  0
    1.4487   -3.6076   21.2357 H   0  0  0  0  0  0  0  0  0  0  0  0
   -1.7100   -1.2260   21.7840 H   0  0  0  0  0  0  0  0  0  0  0  0
  1  2  1  0
  2  3  1  0
  3  4  2  0
  3  5  1  0
  5  6  1  0
  6  7  1  0
  7  8  2  0
  8  9  1  0
  9 10  2  0
 10 11  1  0
 11 12  1  0
 11 13  1  0
 10 14  1  0
 14 15  2  0
  6 16  1  0
 16 17  2  0
 17 18  1  0
 18 19  2  0
 19 20  1  0
 20 21  2  0
 21 22  1  0
 22 23  2  0
 23 24  1  0
 24 25  2  0
 25 26  1  0
 15  7  1  0
 25 16  1  0
 24 19  1  0
  1 27  1  0
  1 28  1  0
  1 29  1  0
  2 30  1  0
  2 31  1  0
  5 32  1  0
  6 33  1  0
  8 34  1  0
  9 35  1  0
 12 36  1  0
 12 37  1  0
 12 38  1  0
 13 39  1  0
 13 40  1  0
 13 41  1  0
 14 42  1  0
 15 43  1  0
 17 44  1  0
 18 45  1  0
 20 46  1  0
 21 47  1  0
 22 48  1  0
 26 49  1  0
M  END
>  <meeko>  (6) 
{"free_energy": -7.366, "intermolecular_energy": -9.156, "internal_energy": -1.594}

$$$$

     RDKit          3D

 49 51  0  0  0  0  0  0  0  0999 V2000
   -0.4260    4.1110   26.8330 C   0  0  0  0  0  0  0  0  0  0  0  0
   -0.8080    4.9210   25.6080 C   0  0  0  0  0  0  0  0  0  0  0  0
   -1.6200    4.1180   24.6070 C   0  0  0  0  0  0  0  0  0  0  0  0
   -2.6250    4.5560   24.0520 O   0  0  0  0  0  0  0  0  0  0  0  0
   -1.0810    2.8610   24.4220 N   0  0  0  0  0  0  0  0  0  0  0  0
   -1.6630    1.8800   23.5150 C   0  0  0  0  0  0  0  0  0  0  0  0
   -2.2990    2.5160   22.2820 C   0  0  0  0  0  0  0  0  0  0  0  0
   -3.6700    2.4820   22.1520 C   0  0  0  0  0  0  0  0  0  0  0  0
   -4.2510    3.0630   21.0250 C   0  0  0  0  0  0  0  0  0  0  0  0
   -3.4470    3.6640   20.0560 C   0  0  0  0  0  0  0  0  0  0  0  0
   -4.0350    4.2520   18.9180 N   0  0  0  0  0  0  0  0  0  0  0  0
   -5.3800    3.8890   18.5170 C   0  0  0  0  0  0  0  0  0  0  0  0
   -3.3080    5.2360   18.1420 C   0  0  0  0  0  0  0  0  0  0  0  0
   -2.0610    3.6830   20.2160 C   0  0  0  0  0  0  0  0  0  0  0  0
   -1.4800    3.1020   21.3420 C   0  0  0  0  0  0  0  0  0  0  0  0
   -0.6480    0.8330   23.1900 C   0  0  0  0  0  0  0  0  0  0  0  0
   -1.0680   -0.3620   22.6200 C   0  0  0  0  0  0  0  0  0  0  0  0
   -0.1290   -1.3430   22.3130 C   0  0  0  0  0  0  0  0  0  0  0  0
    1.2350   -1.1300   22.5770 C   0  0  0  0  0  0  0  0  0  0  0  0
    2.2010   -2.1000   22.2790 C   0  0  0  0  0  0  0  0  0  0  0  0
    3.5400   -1.8590   22.5500 C   0  0  0  0  0  0  0  0  0  0  0  0
    3.8670   -0.6440   23.1170 C   0  0  0  0  0  0  0  0  0  0  0  0
    2.9670    0.3190   23.4210 N   0  0  0  0  0  0  0  0  0  0  0  0
    1.6680    0.0820   23.1550 C   0  0  0  0  0  0  0  0  0  0  0  0
    0.7070    1.0460   23.4510 C   0  0  0  0  0  0  0  0  0  0  0  0
    1.0990    2.2310   24.0130 O   0  0  0  0  0  0  0  0  0  0  0  0
   -0.6908    4.6725   27.7411 H   0  0  0  0  0  0  0  0  0  0  0  0
   -0.9675    3.1536   26.8230 H   0  0  0  0  0  0  0  0  0  0  0  0
    0.6572    3.9198   26.8230 H   0  0  0  0  0  0  0  0  0  0  0  0
   -1.4037    5.7877   25.9304 H   0  0  0  0  0  0  0  0  0  0  0  0
    0.1226    5.2310   25.1100 H   0  0  0  0  0  0  0  0  0  0  0  0
   -0.2200    2.6240   24.9080 H   0  0  0  0  0  0  0  0  0  0  0  0
   -2.5027    1.3865   24.0262 H   0  0  0  0  0  0  0  0  0  0  0  0
   -4.2945    2.0058   22.9222 H   0  0  0  0  0  0  0  0  0  0  0  0
   -5.3438    3.0474   20.9001 H   0  0  0  0  0  0  0  0  0  0  0  0
   -5.9971    3.7224   19.4122 H   0  0  0  0  0  0  0  0  0  0  0  0
   -5.8157    4.7017   17.9173 H   0  0  0  0  0  0  0  0  0  0  0  0
   -5.3477    2.9674   17.9173 H   0  0  0  0  0  0  0  0  0  0  0  0
   -2.7939    5.9318   18.8214 H   0  0  0  0  0  0  0  0  0  0  0  0
   -2.5667    4.7279   17.5077 H   0  0  0  0  0  0  0  0  0  0  0  0
   -4.0114    5.7954   17.5077 H   0  0  0  0  0  0  0  0  0  0  0  0
   -1.4262    4.1569   19.4528 H   0  0  0  0  0  0  0  0  0  0  0  0
   -0.3884    3.1112   21.4774 H   0  0  0  0  0  0  0  0  0  0  0  0
   -2.1348   -0.5321   22.4127 H   0  0  0  0  0  0  0  0  0  0  0  0
   -0.4567   -2.2908   21.8610 H   0  0  0  0  0  0  0  0  0  0  0  0
    1.8966   -3.0562   21.8285 H   0  0  0  0  0  0  0  0  0  0  0  0
    4.3122   -2.6083   22.3215 H   0  0  0  0  0  0  0  0  0  0  0  0
    4.9267   -0.4461   23.3356 H   0  0  0  0  0  0  0  0  0  0  0  0
    2.0630    2.2060   24.1390 H   0  0  0  0  0  0  0  0  0  0  0  0
  1  2  1  0
  2  3  1  0
  3  4  2  0
  3  5  1  0
  5  6  1  0
  6  7  1  0
  7  8  2  0
  8  9  1  0
  9 10  2  0
 10 11  1  0
 11 12  1  0
 11 13  1  0
 10 14  1  0
 14 15  2  0
  6 16  1  0
 16 17  2  0
 17 18  1  0
 18 19  2  0
 19 20  1  0
 20 21  2  0
 21 22  1  0
 22 23  2  0
 23 24  1  0
 24 25  2  0
 25 26  1  0
 15  7  1  0
 25 16  1  0
 24 19  1  0
  1 27  1  0
  1 28  1  0
  1 29  1  0
  2 30  1  0
  2 31  1  0
  5 32  1  0
  6 33  1  0
  8 34  1  0
  9 35  1  0
 12 36  1  0
 12 37  1  0
 12 38  1  0
 13 39  1  0
 13 40  1  0
 13 41  1  0
 14 42  1  0
 15 43  1  0
 17 44  1  0
 18 45  1  0
 20 46  1  0
 21 47  1  0
 22 48  1  0
 26 49  1  0
M  END
>  <meeko>  (7) 
{"free_energy": -7.307, "intermolecular_energy": -9.097, "internal_energy": -1.848}

$$$$

     RDKit          3D

 49 51  0  0  0  0  0  0  0  0999 V2000
    0.4370   -2.2570   20.8880 C   0  0  0  0  0  0  0  0  0  0  0  0
   -0.6500   -2.2110   21.9460 C   0  0  0  0  0  0  0  0  0  0  0  0
   -0.4410   -1.0930   22.9500 C   0  0  0  0  0  0  0  0  0  0  0  0
   -1.1830   -0.9050   23.9110 O   0  0  0  0  0  0  0  0  0  0  0  0
    0.6710   -0.3390   22.6320 N   0  0  0  0  0  0  0  0  0  0  0  0
    1.1030    0.8030   23.4280 C   0  0  0  0  0  0  0  0  0  0  0  0
    2.5750    1.1490   23.2170 C   0  0  0  0  0  0  0  0  0  0  0  0
    2.9240    1.9230   22.1330 C   0  0  0  0  0  0  0  0  0  0  0  0
    4.2690    2.2390   21.9390 C   0  0  0  0  0  0  0  0  0  0  0  0
    5.2310    1.7740   22.8360 C   0  0  0  0  0  0  0  0  0  0  0  0
    6.5900    2.0950   22.6410 N   0  0  0  0  0  0  0  0  0  0  0  0
    7.2720    2.9860   23.5580 C   0  0  0  0  0  0  0  0  0  0  0  0
    7.3250    1.5260   21.5300 C   0  0  0  0  0  0  0  0  0  0  0  0
    4.8470    0.9920   23.9260 C   0  0  0  0  0  0  0  0  0  0  0  0
    3.5020    0.6760   24.1190 C   0  0  0  0  0  0  0  0  0  0  0  0
    0.1810    1.9540   23.1960 C   0  0  0  0  0  0  0  0  0  0  0  0
    0.0670    2.9380   24.1710 C   0  0  0  0  0  0  0  0  0  0  0  0
   -0.7900    4.0140   23.9640 C   0  0  0  0  0  0  0  0  0  0  0  0
   -1.5370    4.1110   22.7770 C   0  0  0  0  0  0  0  0  0  0  0  0
   -2.4080    5.1830   22.5430 C   0  0  0  0  0  0  0  0  0  0  0  0
   -3.1310    5.2500   21.3610 C   0  0  0  0  0  0  0  0  0  0  0  0
   -2.9570    4.2300   20.4480 C   0  0  0  0  0  0  0  0  0  0  0  0
   -2.1280    3.1770   20.6350 N   0  0  0  0  0  0  0  0  0  0  0  0
   -1.4260    3.1160   21.7830 C   0  0  0  0  0  0  0  0  0  0  0  0
   -0.5610    2.0500   22.0170 C   0  0  0  0  0  0  0  0  0  0  0  0
   -0.4340    1.0700   21.0690 O   0  0  0  0  0  0  0  0  0  0  0  0
    1.4220   -2.2987   21.3759 H   0  0  0  0  0  0  0  0  0  0  0  0
    0.3005   -3.1502   20.2606 H   0  0  0  0  0  0  0  0  0  0  0  0
    0.3764   -1.3555   20.2606 H   0  0  0  0  0  0  0  0  0  0  0  0
   -1.6195   -2.0609   21.4485 H   0  0  0  0  0  0  0  0  0  0  0  0
   -0.6191   -3.1628   22.4965 H   0  0  0  0  0  0  0  0  0  0  0  0
    1.2340   -0.6150   21.8320 H   0  0  0  0  0  0  0  0  0  0  0  0
    1.0395    0.5317   24.4921 H   0  0  0  0  0  0  0  0  0  0  0  0
    2.1567    2.2854   21.4331 H   0  0  0  0  0  0  0  0  0  0  0  0
    4.5709    2.8547   21.0789 H   0  0  0  0  0  0  0  0  0  0  0  0
    7.0457    2.6903   24.5931 H   0  0  0  0  0  0  0  0  0  0  0  0
    8.3572    2.9261   23.3885 H   0  0  0  0  0  0  0  0  0  0  0  0
    6.9308    4.0179   23.3885 H   0  0  0  0  0  0  0  0  0  0  0  0
    8.1400    0.8951   21.9143 H   0  0  0  0  0  0  0  0  0  0  0  0
    6.6468    0.9152   20.9160 H   0  0  0  0  0  0  0  0  0  0  0  0
    7.7464    2.3356   20.9160 H   0  0  0  0  0  0  0  0  0  0  0  0
    5.6051    0.6246   24.6333 H   0  0  0  0  0  0  0  0  0  0  0  0
    3.1879    0.0609   24.9751 H   0  0  0  0  0  0  0  0  0  0  0  0
    0.6508    2.8663   25.1005 H   0  0  0  0  0  0  0  0  0  0  0  0
   -0.8838    4.7939   24.7340 H   0  0  0  0  0  0  0  0  0  0  0  0
   -2.5190    5.9742   23.2991 H   0  0  0  0  0  0  0  0  0  0  0  0
   -3.8176    6.0853   21.1590 H   0  0  0  0  0  0  0  0  0  0  0  0
   -3.5282    4.2758   19.5090 H   0  0  0  0  0  0  0  0  0  0  0  0
   -0.7420    1.4260   20.2180 H   0  0  0  0  0  0  0  0  0  0  0  0
  1  2  1  0
  2  3  1  0
  3  4  2  0
  3  5  1  0
  5  6  1  0
  6  7  1  0
  7  8  2  0
  8  9  1  0
  9 10  2  0
 10 11  1  0
 11 12  1  0
 11 13  1  0
 10 14  1  0
 14 15  2  0
  6 16  1  0
 16 17  2  0
 17 18  1  0
 18 19  2  0
 19 20  1  0
 20 21  2  0
 21 22  1  0
 22 23  2  0
 23 24  1  0
 24 25  2  0
 25 26  1  0
 15  7  1  0
 25 16  1  0
 24 19  1  0
  1 27  1  0
  1 28  1  0
  1 29  1  0
  2 30  1  0
  2 31  1  0
  5 32  1  0
  6 33  1  0
  8 34  1  0
  9 35  1  0
 12 36  1  0
 12 37  1  0
 12 38  1  0
 13 39  1  0
 13 40  1  0
 13 41  1  0
 14 42  1  0
 15 43  1  0
 17 44  1  0
 18 45  1  0
 20 46  1  0
 21 47  1  0
 22 48  1  0
 26 49  1  0
M  END
>  <meeko>  (8) 
{"free_energy": -7.283, "intermolecular_energy": -9.073, "internal_energy": -1.479}

$$$$

     RDKit          3D

 49 51  0  0  0  0  0  0  0  0999 V2000
    0.1180   -2.7480   21.6750 C   0  0  0  0  0  0  0  0  0  0  0  0
   -1.1830   -2.2350   22.2640 C   0  0  0  0  0  0  0  0  0  0  0  0
   -1.1250   -0.7560   22.6050 C   0  0  0  0  0  0  0  0  0  0  0  0
   -2.1130   -0.0260   22.5970 O   0  0  0  0  0  0  0  0  0  0  0  0
    0.1620   -0.3660   22.9130 N   0  0  0  0  0  0  0  0  0  0  0  0
    0.5040    1.0040   23.2760 C   0  0  0  0  0  0  0  0  0  0  0  0
    1.9990    1.2920   23.1590 C   0  0  0  0  0  0  0  0  0  0  0  0
    2.8840    0.4870   23.8410 C   0  0  0  0  0  0  0  0  0  0  0  0
    4.2490    0.7510   23.7350 C   0  0  0  0  0  0  0  0  0  0  0  0
    4.6960    1.8120   22.9480 C   0  0  0  0  0  0  0  0  0  0  0  0
    6.0760    2.0780   22.8400 N   0  0  0  0  0  0  0  0  0  0  0  0
    6.8470    1.5200   21.7460 C   0  0  0  0  0  0  0  0  0  0  0  0
    6.7390    2.9230   23.8130 C   0  0  0  0  0  0  0  0  0  0  0  0
    3.7750    2.6100   22.2680 C   0  0  0  0  0  0  0  0  0  0  0  0
    2.4100    2.3470   22.3750 C   0  0  0  0  0  0  0  0  0  0  0  0
   -0.3490    1.9560   22.5040 C   0  0  0  0  0  0  0  0  0  0  0  0
   -0.3730    1.8710   21.1170 C   0  0  0  0  0  0  0  0  0  0  0  0
   -1.1650    2.7540   20.3890 C   0  0  0  0  0  0  0  0  0  0  0  0
   -1.9380    3.7250   21.0490 C   0  0  0  0  0  0  0  0  0  0  0  0
   -2.7440    4.6270   20.3410 C   0  0  0  0  0  0  0  0  0  0  0  0
   -3.4960    5.5750   21.0210 C   0  0  0  0  0  0  0  0  0  0  0  0
   -3.4120    5.5870   22.3980 C   0  0  0  0  0  0  0  0  0  0  0  0
   -2.6460    4.7350   23.1190 N   0  0  0  0  0  0  0  0  0  0  0  0
   -1.9190    3.8170   22.4570 C   0  0  0  0  0  0  0  0  0  0  0  0
   -1.1170    2.9210   23.1590 C   0  0  0  0  0  0  0  0  0  0  0  0
   -1.0790    2.9860   24.5260 O   0  0  0  0  0  0  0  0  0  0  0  0
    0.8068   -3.0196   22.4885 H   0  0  0  0  0  0  0  0  0  0  0  0
   -0.0843   -3.6337   21.0548 H   0  0  0  0  0  0  0  0  0  0  0  0
    0.5746   -1.9626   21.0548 H   0  0  0  0  0  0  0  0  0  0  0  0
   -1.9890   -2.3970   21.5331 H   0  0  0  0  0  0  0  0  0  0  0  0
   -1.3667   -2.7860   23.1982 H   0  0  0  0  0  0  0  0  0  0  0  0
    0.8950   -1.0700   22.9260 H   0  0  0  0  0  0  0  0  0  0  0  0
    0.2843    1.1479   24.3442 H   0  0  0  0  0  0  0  0  0  0  0  0
    2.5210   -0.3484   24.4577 H   0  0  0  0  0  0  0  0  0  0  0  0
    4.9738    0.1219   24.2725 H   0  0  0  0  0  0  0  0  0  0  0  0
    7.6758    0.9202   22.1501 H   0  0  0  0  0  0  0  0  0  0  0  0
    6.1985    0.8807   21.1290 H   0  0  0  0  0  0  0  0  0  0  0  0
    7.2516    2.3359   21.1290 H   0  0  0  0  0  0  0  0  0  0  0  0
    6.4769    2.5890   24.8278 H   0  0  0  0  0  0  0  0  0  0  0  0
    7.8283    2.8563   23.6749 H   0  0  0  0  0  0  0  0  0  0  0  0
    6.4150    3.9651   23.6749 H   0  0  0  0  0  0  0  0  0  0  0  0
    4.1263    3.4473   21.6470 H   0  0  0  0  0  0  0  0  0  0  0  0
    1.6756    2.9701   21.8435 H   0  0  0  0  0  0  0  0  0  0  0  0
    0.2298    1.1111   20.5982 H   0  0  0  0  0  0  0  0  0  0  0  0
   -1.1862    2.6917   19.2910 H   0  0  0  0  0  0  0  0  0  0  0  0
   -2.7807    4.5835   19.2425 H   0  0  0  0  0  0  0  0  0  0  0  0
   -4.1350    6.2900   20.4821 H   0  0  0  0  0  0  0  0  0  0  0  0
   -4.0045    6.3357   22.9442 H   0  0  0  0  0  0  0  0  0  0  0  0
   -1.6600    3.7100   24.8140 H   0  0  0  0  0  0  0  0  0  0  0  0
  1  2  1  0
  2  3  1  0
  3  4  2  0
  3  5  1  0
  5  6  1  0
  6  7  1  0
  7  8  2  0
  8  9  1  0
  9 10  2  0
 10 11  1  0
 11 12  1  0
 11 13  1  0
 10 14  1  0
 14 15  2  0
  6 16  1  0
 16 17  2  0
 17 18  1  0
 18 19  2  0
 19 20  1  0
 20 21  2  0
 21 22  1  0
 22 23  2  0
 23 24  1  0
 24 25  2  0
 25 26  1  0
 15  7  1  0
 25 16  1  0
 24 19  1  0
  1 27  1  0
  1 28  1  0
  1 29  1  0
  2 30  1  0
  2 31  1  0
  5 32  1  0
  6 33  1  0
  8 34  1  0
  9 35  1  0
 12 36  1  0
 12 37  1  0
 12 38  1  0
 13 39  1  0
 13 40  1  0
 13 41  1  0
 14 42  1  0
 15 43  1  0
 17 44  1  0
 18 45  1  0
 20 46  1  0
 21 47  1  0
 22 48  1  0
 26 49  1  0
M  END
>  <meeko>  (9) 
{"free_energy": -6.88, "intermolecular_energy": -8.67, "internal_energy": -1.471}

$$$$

