REMARK SMILES CCC(=O)NC(c1ccc(N(C)C)cc1)c1ccc2cccnc2c1O
REMARK SMILES IDX 6 1 16 2 25 3 24 4 17 5 23 6 19 7 18 8 22 9 20 10 21 11
REMARK SMILES IDX 26 12 5 14 3 15 4 17 2 18 1 19 7 20 8 21 15 22 9 23 14 24
REMARK SMILES IDX 10 25 11 26 12 27 13 28
REMARK H PARENT 26 13 5 16
REMARK Flexibility Score: inf
ROOT
ATOM      1  C   UNL     1      -0.159   0.929   0.289  1.00  0.00     0.146 C 
ENDROOT
BRANCH   1   2
ATOM      2  C   UNL     1       1.106   0.246  -0.116  1.00  0.00     0.023 A 
ATOM      3  C   UNL     1       2.172   0.126   0.778  1.00  0.00     0.147 A 
ATOM      4  C   UNL     1       3.359  -0.507   0.419  1.00  0.00     0.112 A 
ATOM      5  C   UNL     1       1.214  -0.272  -1.401  1.00  0.00     0.011 A 
ATOM      6  N   UNL     1       4.367  -0.606   1.306  1.00  0.00    -0.252 NA
ATOM      7  C   UNL     1       3.462  -1.031  -0.887  1.00  0.00     0.004 A 
ATOM      8  C   UNL     1       2.389  -0.910  -1.787  1.00  0.00     0.011 A 
ATOM      9  C   UNL     1       5.503  -1.229   0.916  1.00  0.00     0.112 A 
ATOM     10  C   UNL     1       4.656  -1.669  -1.249  1.00  0.00     0.012 A 
ATOM     11  C   UNL     1       5.697  -1.772  -0.338  1.00  0.00     0.021 A 
BRANCH   3  12
ATOM     12  O   UNL     1       2.044   0.644   2.039  1.00  0.00    -0.505 OA
ATOM     13  H   UNL     1       1.202   0.333   2.413  1.00  0.00     0.293 HD
ENDBRANCH   3  12
ENDBRANCH   1   2
BRANCH   1  14
ATOM     14  N   UNL     1      -0.312   2.165  -0.468  1.00  0.00    -0.345 N 
ATOM     15  C   UNL     1      -0.965   3.272   0.035  1.00  0.00     0.220 C 
ATOM     16  H   UNL     1       0.042   2.199  -1.420  1.00  0.00     0.164 HD
ATOM     17  O   UNL     1      -1.482   3.356   1.146  1.00  0.00    -0.275 OA
BRANCH  15  18
ATOM     18  C   UNL     1      -0.968   4.410  -0.970  1.00  0.00     0.096 C 
ATOM     19  C   UNL     1      -1.708   5.634  -0.463  1.00  0.00     0.014 C 
ENDBRANCH  15  18
ENDBRANCH   1  14
BRANCH   1  20
ATOM     20  C   UNL     1      -1.390   0.029   0.210  1.00  0.00    -0.021 A 
ATOM     21  C   UNL     1      -1.770  -0.672   1.333  1.00  0.00     0.008 A 
ATOM     22  C   UNL     1      -2.077  -0.050  -0.981  1.00  0.00     0.008 A 
ATOM     23  C   UNL     1      -2.894  -1.495   1.261  1.00  0.00     0.026 A 
ATOM     24  C   UNL     1      -3.201  -0.872  -1.053  1.00  0.00     0.026 A 
ATOM     25  C   UNL     1      -3.610  -1.595   0.068  1.00  0.00     0.036 A 
BRANCH  25  26
ATOM     26  N   UNL     1      -4.747  -2.426  -0.004  1.00  0.00    -0.378 N 
ATOM     27  C   UNL     1      -5.562  -2.658   1.172  1.00  0.00     0.143 C 
ATOM     28  C   UNL     1      -5.123  -3.047  -1.258  1.00  0.00     0.143 C 
ENDBRANCH  25  26
ENDBRANCH   1  20
TORSDOF 6
