@<TRIPOS>MOLECULE
MOL
   49    51     1     0     0
SMALL
bcc


@<TRIPOS>ATOM
      1 C1           7.7840     1.9310    21.4120 c3         1 MOL      -0.092100
      2 C2           6.4560     2.5860    21.7430 c3         1 MOL      -0.156400
      3 C3           5.7550     1.9260    22.9170 c          1 MOL       0.664100
      4 O1           6.3310     1.6240    23.9590 o          1 MOL      -0.605100
      5 N1           4.4180     1.7170    22.6450 n          1 MOL      -0.568900
      6 C4           3.5080     1.0960    23.5990 c3         1 MOL       0.203300
      7 C5           2.0390     1.3620    23.2780 ca         1 MOL      -0.120300
      8 C6           1.7330     2.2360    22.2580 ca         1 MOL      -0.093500
      9 C7           0.3910     2.4800    21.9650 ca         1 MOL      -0.167500
     10 C8          -0.6100     1.8430    22.6980 ca         1 MOL       0.134600
     11 N2          -1.9660     2.0880    22.4000 nh         1 MOL      -0.642000
     12 C9          -2.9900     1.8630    23.4010 c3         1 MOL       0.172600
     13 C10         -2.3520     2.5830    21.0940 c3         1 MOL       0.172600
     14 C11         -0.2690     0.9620    23.7250 ca         1 MOL      -0.167500
     15 C12          1.0720     0.7190    24.0180 ca         1 MOL      -0.093500
     16 C13          3.8360    -0.3550    23.7330 ca         1 MOL      -0.126300
     17 C14          3.2970    -1.2570    22.8230 ca         1 MOL      -0.079000
     18 C15          3.5970    -2.6110    22.9400 ca         1 MOL      -0.153000
     19 C16          4.4400    -3.0670    23.9690 ca         1 MOL      -0.111300
     20 C17          4.7580    -4.4250    24.1100 ca         1 MOL      -0.084000
     21 C18          5.5920    -4.8440    25.1360 ca         1 MOL      -0.241300
     22 C19          6.0820    -3.8790    25.9930 ca         1 MOL       0.413200
     23 N3           5.8000    -2.5600    25.8930 nb         1 MOL      -0.673000
     24 C20          4.9900    -2.1570    24.8960 ca         1 MOL       0.332600
     25 C21          4.6730    -0.8080    24.7550 ca         1 MOL       0.110800
     26 O2           5.1920     0.0980    25.6400 oh         1 MOL      -0.493100
     27 H1           8.3080     1.6730    22.3440 hc         1 MOL       0.040367
     28 H2           7.6060     1.0170    20.8260 hc         1 MOL       0.040367
     29 H3           8.4010     2.6280    20.8260 hc         1 MOL       0.040367
     30 H4           6.6360     3.6430    21.9890 hc         1 MOL       0.071200
     31 H5           5.8040     2.4790    20.8630 hc         1 MOL       0.071200
     32 H6           4.0430     2.0470    21.7600 hn         1 MOL       0.303500
     33 H7           3.6580     1.5670    24.5820 h1         1 MOL       0.121700
     34 H8           2.5310     2.7320    21.6860 ha         1 MOL       0.132000
     35 H9           0.1220     3.1750    21.1560 ha         1 MOL       0.134500
     36 H10         -2.5500     1.9600    24.4040 h1         1 MOL       0.036533
     37 H11         -3.7920     2.6070    23.2790 h1         1 MOL       0.036533
     38 H12         -3.4060     0.8520    23.2790 h1         1 MOL       0.036533
     39 H13         -3.0250     3.4450    21.2130 h1         1 MOL       0.036533
     40 H14         -1.4540     2.8920    20.5390 h1         1 MOL       0.036533
     41 H15         -2.8700     1.7870    20.5390 h1         1 MOL       0.036533
     42 H16         -1.0580     0.4590    24.3030 ha         1 MOL       0.134500
     43 H17          1.3530     0.0260    24.8250 ha         1 MOL       0.132000
     44 H18          2.6380    -0.9030    22.0160 ha         1 MOL       0.129000
     45 H19          3.1720    -3.3290    22.2230 ha         1 MOL       0.136000
     46 H20          4.3450    -5.1610    23.4040 ha         1 MOL       0.141000
     47 H21          5.8530    -5.9050    25.2620 ha         1 MOL       0.146000
     48 H22          6.7440    -4.2040    26.8090 h4         1 MOL       0.024100
     49 H23          5.5670    -0.3910    26.3930 ho         1 MOL       0.448000
@<TRIPOS>BOND
     1     1     2 1   
     2     1    27 1   
     3     1    28 1   
     4     1    29 1   
     5     2     3 1   
     6     2    30 1   
     7     2    31 1   
     8     3     4 2   
     9     3     5 1   
    10     5     6 1   
    11     5    32 1   
    12     6     7 1   
    13     6    16 1   
    14     6    33 1   
    15     7     8 ar  
    16     8     9 ar  
    17     8    34 1   
    18     9    10 ar  
    19     9    35 1   
    20    10    11 1   
    21    10    14 ar  
    22    11    12 1   
    23    11    13 1   
    24    12    36 1   
    25    12    37 1   
    26    12    38 1   
    27    13    39 1   
    28    13    40 1   
    29    13    41 1   
    30    14    15 ar  
    31    14    42 1   
    32    15     7 ar  
    33    15    43 1   
    34    16    17 ar  
    35    17    18 ar  
    36    17    44 1   
    37    18    19 ar  
    38    18    45 1   
    39    19    20 ar  
    40    20    21 ar  
    41    20    46 1   
    42    21    22 ar  
    43    21    47 1   
    44    22    23 ar  
    45    22    48 1   
    46    23    24 ar  
    47    24    25 ar  
    48    24    19 ar  
    49    25    26 1   
    50    25    16 ar  
    51    26    49 1   
@<TRIPOS>SUBSTRUCTURE
     1 MOL         1 TEMP              0 ****  ****    0 ROOT
